** sch_path: /foss/designs/ip/extended_ram/gf180mcu_ocd_ip_sram/cells/gf180mcu_ocd_ip_sram__sram1024x16m8wm1/xschem/gf180mcu_ocd_ip_sram__sram1024x16m8wm1.sch
.subckt gf180mcu_ocd_ip_sram__sram1024x16m8wm1 VSS VDD A[9] A[8] A[7] A[6] A[5] A[4] A[3] A[2] A[1] A[0] CLK GWEN Q[15] Q[14]
+ Q[13] Q[12] Q[11] Q[10] Q[9] Q[8] Q[7] Q[6] Q[5] Q[4] Q[3] Q[2] Q[1] Q[0] WEN[15] WEN[14] WEN[13] WEN[12] WEN[11] WEN[10] WEN[9] WEN[8]
+ WEN[7] WEN[6] WEN[5] WEN[4] WEN[3] WEN[2] WEN[1] WEN[0] D[15] D[14] D[13] D[12] D[11] D[10] D[9] D[8] D[7] D[6] D[5] D[4] D[3] D[2] D[1]
+ D[0] CEN
*.PININFO Q[15:0]:O WEN[15:0]:I D[15:0]:I A[9:0]:I CLK:I GWEN:I VDD:B VSS:B CEN:I
x1 VDD VSS LWL[127] LWL[126] LWL[125] LWL[124] LWL[123] LWL[122] LWL[121] LWL[120] LWL[119] LWL[118] LWL[117] LWL[116] LWL[115]
+ LWL[114] LWL[113] LWL[112] LWL[111] LWL[110] LWL[109] LWL[108] LWL[107] LWL[106] LWL[105] LWL[104] LWL[103] LWL[102] LWL[101] LWL[100]
+ LWL[99] LWL[98] LWL[97] LWL[96] LWL[95] LWL[94] LWL[93] LWL[92] LWL[91] LWL[90] LWL[89] LWL[88] LWL[87] LWL[86] LWL[85] LWL[84] LWL[83]
+ LWL[82] LWL[81] LWL[80] LWL[79] LWL[78] LWL[77] LWL[76] LWL[75] LWL[74] LWL[73] LWL[72] LWL[71] LWL[70] LWL[69] LWL[68] LWL[67] LWL[66]
+ LWL[65] LWL[64] LWL[63] LWL[62] LWL[61] LWL[60] LWL[59] LWL[58] LWL[57] LWL[56] LWL[55] LWL[54] LWL[53] LWL[52] LWL[51] LWL[50] LWL[49]
+ LWL[48] LWL[47] LWL[46] LWL[45] LWL[44] LWL[43] LWL[42] LWL[41] LWL[40] LWL[39] LWL[38] LWL[37] LWL[36] LWL[35] LWL[34] LWL[33] LWL[32]
+ LWL[31] LWL[30] LWL[29] LWL[28] LWL[27] LWL[26] LWL[25] LWL[24] LWL[23] LWL[22] LWL[21] LWL[20] LWL[19] LWL[18] LWL[17] LWL[16] LWL[15]
+ LWL[14] LWL[13] LWL[12] LWL[11] LWL[10] LWL[9] LWL[8] LWL[7] LWL[6] LWL[5] LWL[4] LWL[3] LWL[2] LWL[1] LWL[0] ypassl[7] ypassl[6]
+ ypassl[5] ypassl[4] ypassl[3] ypassl[2] ypassl[1] ypassl[0] D[7] D[6] D[5] D[4] Q[7] Q[6] Q[5] Q[4] men GWE IGWEN WEN[7] WEN[6] WEN[5]
+ WEN[4] lcol4_1024_3v1024x8m81
x2 VDD VSS RWL[127] RWL[126] RWL[125] RWL[124] RWL[123] RWL[122] RWL[121] RWL[120] RWL[119] RWL[118] RWL[117] RWL[116] RWL[115]
+ RWL[114] RWL[113] RWL[112] RWL[111] RWL[110] RWL[109] RWL[108] RWL[107] RWL[106] RWL[105] RWL[104] RWL[103] RWL[102] RWL[101] RWL[100]
+ RWL[99] RWL[98] RWL[97] RWL[96] RWL[95] RWL[94] RWL[93] RWL[92] RWL[91] RWL[90] RWL[89] RWL[88] RWL[87] RWL[86] RWL[85] RWL[84] RWL[83]
+ RWL[82] RWL[81] RWL[80] RWL[79] RWL[78] RWL[77] RWL[76] RWL[75] RWL[74] RWL[73] RWL[72] RWL[71] RWL[70] RWL[69] RWL[68] RWL[67] RWL[66]
+ RWL[65] RWL[64] RWL[63] RWL[62] RWL[61] RWL[60] RWL[59] RWL[58] RWL[57] RWL[56] RWL[55] RWL[54] RWL[53] RWL[52] RWL[51] RWL[50] RWL[49]
+ RWL[48] RWL[47] RWL[46] RWL[45] RWL[44] RWL[43] RWL[42] RWL[41] RWL[40] RWL[39] RWL[38] RWL[37] RWL[36] RWL[35] RWL[34] RWL[33] RWL[32]
+ RWL[31] RWL[30] RWL[29] RWL[28] RWL[27] RWL[26] RWL[25] RWL[24] RWL[23] RWL[22] RWL[21] RWL[20] RWL[19] RWL[18] RWL[17] RWL[16] RWL[15]
+ RWL[14] RWL[13] RWL[12] RWL[11] RWL[10] RWL[9] RWL[8] RWL[7] RWL[6] RWL[5] RWL[4] RWL[3] RWL[2] RWL[1] RWL[0] ypassr[7] ypassr[6]
+ ypassr[5] ypassr[4] ypassr[3] ypassr[2] ypassr[1] ypassr[0] D[11] D[10] D[9] D[8] Q[11] Q[10] Q[9] Q[8] men GWE IGWEN WEN[11] WEN[10]
+ WEN[9] WEN[8] VSS net3 rcol4_1024_3v1024x8m81
x3 VSS VDD net5 DRWL net1_7 net1_6 net1_5 net1_4 net1_3 net1_2 net1_1 net1_0 LWL[127] LWL[126] LWL[125] LWL[124] LWL[123] LWL[122]
+ LWL[121] LWL[120] LWL[119] LWL[118] LWL[117] LWL[116] LWL[115] LWL[114] LWL[113] LWL[112] LWL[111] LWL[110] LWL[109] LWL[108] LWL[107]
+ LWL[106] LWL[105] LWL[104] LWL[103] LWL[102] LWL[101] LWL[100] LWL[99] LWL[98] LWL[97] LWL[96] LWL[95] LWL[94] LWL[93] LWL[92] LWL[91]
+ LWL[90] LWL[89] LWL[88] LWL[87] LWL[86] LWL[85] LWL[84] LWL[83] LWL[82] LWL[81] LWL[80] LWL[79] LWL[78] LWL[77] LWL[76] LWL[75] LWL[74]
+ LWL[73] LWL[72] LWL[71] LWL[70] LWL[69] LWL[68] LWL[67] LWL[66] LWL[65] LWL[64] LWL[63] LWL[62] LWL[61] LWL[60] LWL[59] LWL[58] LWL[57]
+ LWL[56] LWL[55] LWL[54] LWL[53] LWL[52] LWL[51] LWL[50] LWL[49] LWL[48] LWL[47] LWL[46] LWL[45] LWL[44] LWL[43] LWL[42] LWL[41] LWL[40]
+ LWL[39] LWL[38] LWL[37] LWL[36] LWL[35] LWL[34] LWL[33] LWL[32] LWL[31] LWL[30] LWL[29] LWL[28] LWL[27] LWL[26] LWL[25] LWL[24] LWL[23]
+ LWL[22] LWL[21] LWL[20] LWL[19] LWL[18] LWL[17] LWL[16] LWL[15] LWL[14] LWL[13] LWL[12] LWL[11] LWL[10] LWL[9] LWL[8] LWL[7] LWL[6]
+ LWL[5] LWL[4] LWL[3] LWL[2] LWL[1] LWL[0] net2_3 net2_2 net2_1 net2_0 RWL[127] RWL[126] RWL[125] RWL[124] RWL[123] RWL[122] RWL[121]
+ RWL[120] RWL[119] RWL[118] RWL[117] RWL[116] RWL[115] RWL[114] RWL[113] RWL[112] RWL[111] RWL[110] RWL[109] RWL[108] RWL[107] RWL[106]
+ RWL[105] RWL[104] RWL[103] RWL[102] RWL[101] RWL[100] RWL[99] RWL[98] RWL[97] RWL[96] RWL[95] RWL[94] RWL[93] RWL[92] RWL[91] RWL[90]
+ RWL[89] RWL[88] RWL[87] RWL[86] RWL[85] RWL[84] RWL[83] RWL[82] RWL[81] RWL[80] RWL[79] RWL[78] RWL[77] RWL[76] RWL[75] RWL[74] RWL[73]
+ RWL[72] RWL[71] RWL[70] RWL[69] RWL[68] RWL[67] RWL[66] RWL[65] RWL[64] RWL[63] RWL[62] RWL[61] RWL[60] RWL[59] RWL[58] RWL[57] RWL[56]
+ RWL[55] RWL[54] RWL[53] RWL[52] RWL[51] RWL[50] RWL[49] RWL[48] RWL[47] RWL[46] RWL[45] RWL[44] RWL[43] RWL[42] RWL[41] RWL[40] RWL[39]
+ RWL[38] RWL[37] RWL[36] RWL[35] RWL[34] RWL[33] RWL[32] RWL[31] RWL[30] RWL[29] RWL[28] RWL[27] RWL[26] RWL[25] RWL[24] RWL[23] RWL[22]
+ RWL[21] RWL[20] RWL[19] RWL[18] RWL[17] RWL[16] RWL[15] RWL[14] RWL[13] RWL[12] RWL[11] RWL[10] RWL[9] RWL[8] RWL[7] RWL[6] RWL[5] RWL[4]
+ RWL[3] RWL[2] RWL[1] RWL[0] men net4_3 net4_2 net4_1 net4_0 xdec128_3v1024x8m81
* noconn #net5
x4 VSS VDD A[9] A[8] A[7] A[6] A[5] A[4] A[3] A[2] A[1] A[0] net4_3 net4_2 net4_1 net4_0 net2_3 net2_2 net2_1 net2_0 net1_7 net1_6
+ net1_5 net1_4 net1_3 net1_2 net1_1 net1_0 CLK men IGWEN GWEN GWE ypassr[7] ypassr[6] ypassr[5] ypassr[4] ypassr[3] ypassr[2] ypassr[1]
+ ypassr[0] ypassl[7] ypassl[6] ypassl[5] ypassl[4] ypassl[3] ypassl[2] ypassl[1] ypassl[0] tblhl CEN control_3v1024x8_3v1024x8m81
x5 VDD VSS LWL[127] LWL[126] LWL[125] LWL[124] LWL[123] LWL[122] LWL[121] LWL[120] LWL[119] LWL[118] LWL[117] LWL[116] LWL[115]
+ LWL[114] LWL[113] LWL[112] LWL[111] LWL[110] LWL[109] LWL[108] LWL[107] LWL[106] LWL[105] LWL[104] LWL[103] LWL[102] LWL[101] LWL[100]
+ LWL[99] LWL[98] LWL[97] LWL[96] LWL[95] LWL[94] LWL[93] LWL[92] LWL[91] LWL[90] LWL[89] LWL[88] LWL[87] LWL[86] LWL[85] LWL[84] LWL[83]
+ LWL[82] LWL[81] LWL[80] LWL[79] LWL[78] LWL[77] LWL[76] LWL[75] LWL[74] LWL[73] LWL[72] LWL[71] LWL[70] LWL[69] LWL[68] LWL[67] LWL[66]
+ LWL[65] LWL[64] LWL[63] LWL[62] LWL[61] LWL[60] LWL[59] LWL[58] LWL[57] LWL[56] LWL[55] LWL[54] LWL[53] LWL[52] LWL[51] LWL[50] LWL[49]
+ LWL[48] LWL[47] LWL[46] LWL[45] LWL[44] LWL[43] LWL[42] LWL[41] LWL[40] LWL[39] LWL[38] LWL[37] LWL[36] LWL[35] LWL[34] LWL[33] LWL[32]
+ LWL[31] LWL[30] LWL[29] LWL[28] LWL[27] LWL[26] LWL[25] LWL[24] LWL[23] LWL[22] LWL[21] LWL[20] LWL[19] LWL[18] LWL[17] LWL[16] LWL[15]
+ LWL[14] LWL[13] LWL[12] LWL[11] LWL[10] LWL[9] LWL[8] LWL[7] LWL[6] LWL[5] LWL[4] LWL[3] LWL[2] LWL[1] LWL[0] ypassl[7] ypassl[6]
+ ypassl[5] ypassl[4] ypassl[3] ypassl[2] ypassl[1] ypassl[0] D[3] D[2] D[1] D[0] Q[3] Q[2] Q[1] Q[0] men GWE IGWEN WEN[0] WEN[1] WEN[2]
+ WEN[3] lcol4_1024_3v1024x8m81
x6 VDD VSS RWL[127] RWL[126] RWL[125] RWL[124] RWL[123] RWL[122] RWL[121] RWL[120] RWL[119] RWL[118] RWL[117] RWL[116] RWL[115]
+ RWL[114] RWL[113] RWL[112] RWL[111] RWL[110] RWL[109] RWL[108] RWL[107] RWL[106] RWL[105] RWL[104] RWL[103] RWL[102] RWL[101] RWL[100]
+ RWL[99] RWL[98] RWL[97] RWL[96] RWL[95] RWL[94] RWL[93] RWL[92] RWL[91] RWL[90] RWL[89] RWL[88] RWL[87] RWL[86] RWL[85] RWL[84] RWL[83]
+ RWL[82] RWL[81] RWL[80] RWL[79] RWL[78] RWL[77] RWL[76] RWL[75] RWL[74] RWL[73] RWL[72] RWL[71] RWL[70] RWL[69] RWL[68] RWL[67] RWL[66]
+ RWL[65] RWL[64] RWL[63] RWL[62] RWL[61] RWL[60] RWL[59] RWL[58] RWL[57] RWL[56] RWL[55] RWL[54] RWL[53] RWL[52] RWL[51] RWL[50] RWL[49]
+ RWL[48] RWL[47] RWL[46] RWL[45] RWL[44] RWL[43] RWL[42] RWL[41] RWL[40] RWL[39] RWL[38] RWL[37] RWL[36] RWL[35] RWL[34] RWL[33] RWL[32]
+ RWL[31] RWL[30] RWL[29] RWL[28] RWL[27] RWL[26] RWL[25] RWL[24] RWL[23] RWL[22] RWL[21] RWL[20] RWL[19] RWL[18] RWL[17] RWL[16] RWL[15]
+ RWL[14] RWL[13] RWL[12] RWL[11] RWL[10] RWL[9] RWL[8] RWL[7] RWL[6] RWL[5] RWL[4] RWL[3] RWL[2] RWL[1] RWL[0] ypassr[7] ypassr[6]
+ ypassr[5] ypassr[4] ypassr[3] ypassr[2] ypassr[1] ypassr[0] D[15] D[14] D[13] D[12] Q[15] Q[14] Q[13] Q[12] men GWE IGWEN WEN[15] WEN[14]
+ WEN[13] WEN[12] DRWL tblhl rcol4_1024_3v1024x8m81
* noconn #net3
.ends

* expanding   symbol:  lcol4_1024_3v1024x8m81.sym # of pins=10
** sym_path: /foss/designs/ip/extended_ram/gf180mcu_ocd_ip_sram/cells/gf180mcu_ocd_ip_sram__sram1024x16m8wm1/xschem/lcol4_1024_3v1024x8m81.sym
** sch_path: /foss/designs/ip/extended_ram/gf180mcu_ocd_ip_sram/cells/gf180mcu_ocd_ip_sram__sram1024x16m8wm1/xschem/lcol4_1024_3v1024x8m81.sch
.subckt lcol4_1024_3v1024x8m81 vdd vss wr[127] wr[126] wr[125] wr[124] wr[123] wr[122] wr[121] wr[120] wr[119] wr[118] wr[117]
+ wr[116] wr[115] wr[114] wr[113] wr[112] wr[111] wr[110] wr[109] wr[108] wr[107] wr[106] wr[105] wr[104] wr[103] wr[102] wr[101] wr[100]
+ wr[99] wr[98] wr[97] wr[96] wr[95] wr[94] wr[93] wr[92] wr[91] wr[90] wr[89] wr[88] wr[87] wr[86] wr[85] wr[84] wr[83] wr[82] wr[81]
+ wr[80] wr[79] wr[78] wr[77] wr[76] wr[75] wr[74] wr[73] wr[72] wr[71] wr[70] wr[69] wr[68] wr[67] wr[66] wr[65] wr[64] wr[63] wr[62]
+ wr[61] wr[60] wr[59] wr[58] wr[57] wr[56] wr[55] wr[54] wr[53] wr[52] wr[51] wr[50] wr[49] wr[48] wr[47] wr[46] wr[45] wr[44] wr[43]
+ wr[42] wr[41] wr[40] wr[39] wr[38] wr[37] wr[36] wr[35] wr[34] wr[33] wr[32] wr[31] wr[30] wr[29] wr[28] wr[27] wr[26] wr[25] wr[24]
+ wr[23] wr[22] wr[21] wr[20] wr[19] wr[18] wr[17] wr[16] wr[15] wr[14] wr[13] wr[12] wr[11] wr[10] wr[9] wr[8] wr[7] wr[6] wr[5] wr[4]
+ wr[3] wr[2] wr[1] wr[0] ypass[7] ypass[6] ypass[5] ypass[4] ypass[3] ypass[2] ypass[1] ypass[0] datain[3] datain[2] datain[1] datain[0]
+ q[3] q[2] q[1] q[0] men GWE GWEN WEN[3] WEN[2] WEN[1] WEN[0]
*.PININFO wr[127:0]:I ypass[7:0]:I datain[3:0]:I men:I GWE:I GWEN:I WEN[3:0]:I q[3:0]:O vdd:B vss:B
x1 vdd vss wr[127] wr[126] wr[125] wr[124] wr[123] wr[122] wr[121] wr[120] wr[119] wr[118] wr[117] wr[116] wr[115] wr[114] wr[113]
+ wr[112] wr[111] wr[110] wr[109] wr[108] wr[107] wr[106] wr[105] wr[104] wr[103] wr[102] wr[101] wr[100] wr[99] wr[98] wr[97] wr[96]
+ wr[95] wr[94] wr[93] wr[92] wr[91] wr[90] wr[89] wr[88] wr[87] wr[86] wr[85] wr[84] wr[83] wr[82] wr[81] wr[80] wr[79] wr[78] wr[77]
+ wr[76] wr[75] wr[74] wr[73] wr[72] wr[71] wr[70] wr[69] wr[68] wr[67] wr[66] wr[65] wr[64] wr[63] wr[62] wr[61] wr[60] wr[59] wr[58]
+ wr[57] wr[56] wr[55] wr[54] wr[53] wr[52] wr[51] wr[50] wr[49] wr[48] wr[47] wr[46] wr[45] wr[44] wr[43] wr[42] wr[41] wr[40] wr[39]
+ wr[38] wr[37] wr[36] wr[35] wr[34] wr[33] wr[32] wr[31] wr[30] wr[29] wr[28] wr[27] wr[26] wr[25] wr[24] wr[23] wr[22] wr[21] wr[20]
+ wr[19] wr[18] wr[17] wr[16] wr[15] wr[14] wr[13] wr[12] wr[11] wr[10] wr[9] wr[8] wr[7] wr[6] wr[5] wr[4] wr[3] wr[2] wr[1] wr[0] WEN[3]
+ WEN[2] WEN[1] WEN[0] ypass[7] ypass[6] ypass[5] ypass[4] ypass[3] ypass[2] ypass[1] ypass[0] datain[3] datain[2] datain[1] datain[0] men
+ GWE GWEN q[3] q[2] q[1] q[0] net1 col_1024a_3v1024x8m81
x2 vss vdd vss ldummy_3v1024x4_3v1024x8m81
x3[35] vdd vdd vss dcap_103_novia_3v1024x8m81
x3[34] vdd vdd vss dcap_103_novia_3v1024x8m81
x3[33] vdd vdd vss dcap_103_novia_3v1024x8m81
x3[32] vdd vdd vss dcap_103_novia_3v1024x8m81
x3[31] vdd vdd vss dcap_103_novia_3v1024x8m81
x3[30] vdd vdd vss dcap_103_novia_3v1024x8m81
x3[29] vdd vdd vss dcap_103_novia_3v1024x8m81
x3[28] vdd vdd vss dcap_103_novia_3v1024x8m81
x3[27] vdd vdd vss dcap_103_novia_3v1024x8m81
x3[26] vdd vdd vss dcap_103_novia_3v1024x8m81
x3[25] vdd vdd vss dcap_103_novia_3v1024x8m81
x3[24] vdd vdd vss dcap_103_novia_3v1024x8m81
x3[23] vdd vdd vss dcap_103_novia_3v1024x8m81
x3[22] vdd vdd vss dcap_103_novia_3v1024x8m81
x3[21] vdd vdd vss dcap_103_novia_3v1024x8m81
x3[20] vdd vdd vss dcap_103_novia_3v1024x8m81
x3[19] vdd vdd vss dcap_103_novia_3v1024x8m81
x3[18] vdd vdd vss dcap_103_novia_3v1024x8m81
x3[17] vdd vdd vss dcap_103_novia_3v1024x8m81
x3[16] vdd vdd vss dcap_103_novia_3v1024x8m81
x3[15] vdd vdd vss dcap_103_novia_3v1024x8m81
x3[14] vdd vdd vss dcap_103_novia_3v1024x8m81
x3[13] vdd vdd vss dcap_103_novia_3v1024x8m81
x3[12] vdd vdd vss dcap_103_novia_3v1024x8m81
x3[11] vdd vdd vss dcap_103_novia_3v1024x8m81
x3[10] vdd vdd vss dcap_103_novia_3v1024x8m81
x3[9] vdd vdd vss dcap_103_novia_3v1024x8m81
x3[8] vdd vdd vss dcap_103_novia_3v1024x8m81
x3[7] vdd vdd vss dcap_103_novia_3v1024x8m81
x3[6] vdd vdd vss dcap_103_novia_3v1024x8m81
x3[5] vdd vdd vss dcap_103_novia_3v1024x8m81
x3[4] vdd vdd vss dcap_103_novia_3v1024x8m81
x3[3] vdd vdd vss dcap_103_novia_3v1024x8m81
x3[2] vdd vdd vss dcap_103_novia_3v1024x8m81
x3[1] vdd vdd vss dcap_103_novia_3v1024x8m81
x3[0] vdd vdd vss dcap_103_novia_3v1024x8m81
* noconn #net1
.ends


* expanding   symbol:  rcol4_1024_3v1024x8m81.sym # of pins=12
** sym_path: /foss/designs/ip/extended_ram/gf180mcu_ocd_ip_sram/cells/gf180mcu_ocd_ip_sram__sram1024x16m8wm1/xschem/rcol4_1024_3v1024x8m81.sym
** sch_path: /foss/designs/ip/extended_ram/gf180mcu_ocd_ip_sram/cells/gf180mcu_ocd_ip_sram__sram1024x16m8wm1/xschem/rcol4_1024_3v1024x8m81.sch
.subckt rcol4_1024_3v1024x8m81 vdd vss wr[127] wr[126] wr[125] wr[124] wr[123] wr[122] wr[121] wr[120] wr[119] wr[118] wr[117]
+ wr[116] wr[115] wr[114] wr[113] wr[112] wr[111] wr[110] wr[109] wr[108] wr[107] wr[106] wr[105] wr[104] wr[103] wr[102] wr[101] wr[100]
+ wr[99] wr[98] wr[97] wr[96] wr[95] wr[94] wr[93] wr[92] wr[91] wr[90] wr[89] wr[88] wr[87] wr[86] wr[85] wr[84] wr[83] wr[82] wr[81]
+ wr[80] wr[79] wr[78] wr[77] wr[76] wr[75] wr[74] wr[73] wr[72] wr[71] wr[70] wr[69] wr[68] wr[67] wr[66] wr[65] wr[64] wr[63] wr[62]
+ wr[61] wr[60] wr[59] wr[58] wr[57] wr[56] wr[55] wr[54] wr[53] wr[52] wr[51] wr[50] wr[49] wr[48] wr[47] wr[46] wr[45] wr[44] wr[43]
+ wr[42] wr[41] wr[40] wr[39] wr[38] wr[37] wr[36] wr[35] wr[34] wr[33] wr[32] wr[31] wr[30] wr[29] wr[28] wr[27] wr[26] wr[25] wr[24]
+ wr[23] wr[22] wr[21] wr[20] wr[19] wr[18] wr[17] wr[16] wr[15] wr[14] wr[13] wr[12] wr[11] wr[10] wr[9] wr[8] wr[7] wr[6] wr[5] wr[4]
+ wr[3] wr[2] wr[1] wr[0] ypass[7] ypass[6] ypass[5] ypass[4] ypass[3] ypass[2] ypass[1] ypass[0] datain[3] datain[2] datain[1] datain[0]
+ q[3] q[2] q[1] q[0] men GWE GWEN WEN[3] WEN[2] WEN[1] WEN[0] DRWL tblhl
*.PININFO wr[127:0]:I ypass[7:0]:I datain[3:0]:I men:I GWE:I GWEN:I WEN[3:0]:I q[3:0]:O vdd:B vss:B DRWL:I tblhl:O
x1 vdd vss wr[127] wr[126] wr[125] wr[124] wr[123] wr[122] wr[121] wr[120] wr[119] wr[118] wr[117] wr[116] wr[115] wr[114] wr[113]
+ wr[112] wr[111] wr[110] wr[109] wr[108] wr[107] wr[106] wr[105] wr[104] wr[103] wr[102] wr[101] wr[100] wr[99] wr[98] wr[97] wr[96]
+ wr[95] wr[94] wr[93] wr[92] wr[91] wr[90] wr[89] wr[88] wr[87] wr[86] wr[85] wr[84] wr[83] wr[82] wr[81] wr[80] wr[79] wr[78] wr[77]
+ wr[76] wr[75] wr[74] wr[73] wr[72] wr[71] wr[70] wr[69] wr[68] wr[67] wr[66] wr[65] wr[64] wr[63] wr[62] wr[61] wr[60] wr[59] wr[58]
+ wr[57] wr[56] wr[55] wr[54] wr[53] wr[52] wr[51] wr[50] wr[49] wr[48] wr[47] wr[46] wr[45] wr[44] wr[43] wr[42] wr[41] wr[40] wr[39]
+ wr[38] wr[37] wr[36] wr[35] wr[34] wr[33] wr[32] wr[31] wr[30] wr[29] wr[28] wr[27] wr[26] wr[25] wr[24] wr[23] wr[22] wr[21] wr[20]
+ wr[19] wr[18] wr[17] wr[16] wr[15] wr[14] wr[13] wr[12] wr[11] wr[10] wr[9] wr[8] wr[7] wr[6] wr[5] wr[4] wr[3] wr[2] wr[1] wr[0] WEN[3]
+ WEN[2] WEN[1] WEN[0] ypass[7] ypass[6] ypass[5] ypass[4] ypass[3] ypass[2] ypass[1] ypass[0] datain[3] datain[2] datain[1] datain[0] men
+ GWE GWEN q[3] q[2] q[1] q[0] pcb col_1024a_3v1024x8m81
x3[35] vdd vdd vss dcap_103_novia_3v1024x8m81
x3[34] vdd vdd vss dcap_103_novia_3v1024x8m81
x3[33] vdd vdd vss dcap_103_novia_3v1024x8m81
x3[32] vdd vdd vss dcap_103_novia_3v1024x8m81
x3[31] vdd vdd vss dcap_103_novia_3v1024x8m81
x3[30] vdd vdd vss dcap_103_novia_3v1024x8m81
x3[29] vdd vdd vss dcap_103_novia_3v1024x8m81
x3[28] vdd vdd vss dcap_103_novia_3v1024x8m81
x3[27] vdd vdd vss dcap_103_novia_3v1024x8m81
x3[26] vdd vdd vss dcap_103_novia_3v1024x8m81
x3[25] vdd vdd vss dcap_103_novia_3v1024x8m81
x3[24] vdd vdd vss dcap_103_novia_3v1024x8m81
x3[23] vdd vdd vss dcap_103_novia_3v1024x8m81
x3[22] vdd vdd vss dcap_103_novia_3v1024x8m81
x3[21] vdd vdd vss dcap_103_novia_3v1024x8m81
x3[20] vdd vdd vss dcap_103_novia_3v1024x8m81
x3[19] vdd vdd vss dcap_103_novia_3v1024x8m81
x3[18] vdd vdd vss dcap_103_novia_3v1024x8m81
x3[17] vdd vdd vss dcap_103_novia_3v1024x8m81
x3[16] vdd vdd vss dcap_103_novia_3v1024x8m81
x3[15] vdd vdd vss dcap_103_novia_3v1024x8m81
x3[14] vdd vdd vss dcap_103_novia_3v1024x8m81
x3[13] vdd vdd vss dcap_103_novia_3v1024x8m81
x3[12] vdd vdd vss dcap_103_novia_3v1024x8m81
x3[11] vdd vdd vss dcap_103_novia_3v1024x8m81
x3[10] vdd vdd vss dcap_103_novia_3v1024x8m81
x3[9] vdd vdd vss dcap_103_novia_3v1024x8m81
x3[8] vdd vdd vss dcap_103_novia_3v1024x8m81
x3[7] vdd vdd vss dcap_103_novia_3v1024x8m81
x3[6] vdd vdd vss dcap_103_novia_3v1024x8m81
x3[5] vdd vdd vss dcap_103_novia_3v1024x8m81
x3[4] vdd vdd vss dcap_103_novia_3v1024x8m81
x3[3] vdd vdd vss dcap_103_novia_3v1024x8m81
x3[2] vdd vdd vss dcap_103_novia_3v1024x8m81
x3[1] vdd vdd vss dcap_103_novia_3v1024x8m81
x3[0] vdd vdd vss dcap_103_novia_3v1024x8m81
x2 vss vdd vss vss vss DRWL pcb tblhl rdummy_3v1024x4_3v1024x8m81
.ends


* expanding   symbol:  xdec128_3v1024x8m81.sym # of pins=10
** sym_path: /foss/designs/ip/extended_ram/gf180mcu_ocd_ip_sram/cells/gf180mcu_ocd_ip_sram__sram1024x16m8wm1/xschem/xdec128_3v1024x8m81.sym
** sch_path: /foss/designs/ip/extended_ram/gf180mcu_ocd_ip_sram/cells/gf180mcu_ocd_ip_sram__sram1024x16m8wm1/xschem/xdec128_3v1024x8m81.sch
.subckt xdec128_3v1024x8m81 vss vdd DLWL DRWL xa[7] xa[6] xa[5] xa[4] xa[3] xa[2] xa[1] xa[0] LWL[127] LWL[126] LWL[125] LWL[124]
+ LWL[123] LWL[122] LWL[121] LWL[120] LWL[119] LWL[118] LWL[117] LWL[116] LWL[115] LWL[114] LWL[113] LWL[112] LWL[111] LWL[110] LWL[109]
+ LWL[108] LWL[107] LWL[106] LWL[105] LWL[104] LWL[103] LWL[102] LWL[101] LWL[100] LWL[99] LWL[98] LWL[97] LWL[96] LWL[95] LWL[94] LWL[93]
+ LWL[92] LWL[91] LWL[90] LWL[89] LWL[88] LWL[87] LWL[86] LWL[85] LWL[84] LWL[83] LWL[82] LWL[81] LWL[80] LWL[79] LWL[78] LWL[77] LWL[76]
+ LWL[75] LWL[74] LWL[73] LWL[72] LWL[71] LWL[70] LWL[69] LWL[68] LWL[67] LWL[66] LWL[65] LWL[64] LWL[63] LWL[62] LWL[61] LWL[60] LWL[59]
+ LWL[58] LWL[57] LWL[56] LWL[55] LWL[54] LWL[53] LWL[52] LWL[51] LWL[50] LWL[49] LWL[48] LWL[47] LWL[46] LWL[45] LWL[44] LWL[43] LWL[42]
+ LWL[41] LWL[40] LWL[39] LWL[38] LWL[37] LWL[36] LWL[35] LWL[34] LWL[33] LWL[32] LWL[31] LWL[30] LWL[29] LWL[28] LWL[27] LWL[26] LWL[25]
+ LWL[24] LWL[23] LWL[22] LWL[21] LWL[20] LWL[19] LWL[18] LWL[17] LWL[16] LWL[15] LWL[14] LWL[13] LWL[12] LWL[11] LWL[10] LWL[9] LWL[8]
+ LWL[7] LWL[6] LWL[5] LWL[4] LWL[3] LWL[2] LWL[1] LWL[0] xb[3] xb[2] xb[1] xb[0] RWL[127] RWL[126] RWL[125] RWL[124] RWL[123] RWL[122]
+ RWL[121] RWL[120] RWL[119] RWL[118] RWL[117] RWL[116] RWL[115] RWL[114] RWL[113] RWL[112] RWL[111] RWL[110] RWL[109] RWL[108] RWL[107]
+ RWL[106] RWL[105] RWL[104] RWL[103] RWL[102] RWL[101] RWL[100] RWL[99] RWL[98] RWL[97] RWL[96] RWL[95] RWL[94] RWL[93] RWL[92] RWL[91]
+ RWL[90] RWL[89] RWL[88] RWL[87] RWL[86] RWL[85] RWL[84] RWL[83] RWL[82] RWL[81] RWL[80] RWL[79] RWL[78] RWL[77] RWL[76] RWL[75] RWL[74]
+ RWL[73] RWL[72] RWL[71] RWL[70] RWL[69] RWL[68] RWL[67] RWL[66] RWL[65] RWL[64] RWL[63] RWL[62] RWL[61] RWL[60] RWL[59] RWL[58] RWL[57]
+ RWL[56] RWL[55] RWL[54] RWL[53] RWL[52] RWL[51] RWL[50] RWL[49] RWL[48] RWL[47] RWL[46] RWL[45] RWL[44] RWL[43] RWL[42] RWL[41] RWL[40]
+ RWL[39] RWL[38] RWL[37] RWL[36] RWL[35] RWL[34] RWL[33] RWL[32] RWL[31] RWL[30] RWL[29] RWL[28] RWL[27] RWL[26] RWL[25] RWL[24] RWL[23]
+ RWL[22] RWL[21] RWL[20] RWL[19] RWL[18] RWL[17] RWL[16] RWL[15] RWL[14] RWL[13] RWL[12] RWL[11] RWL[10] RWL[9] RWL[8] RWL[7] RWL[6]
+ RWL[5] RWL[4] RWL[3] RWL[2] RWL[1] RWL[0] men xc[3] xc[2] xc[1] xc[0]
*.PININFO xa[7:0]:I xb[3:0]:I men:I RWL[127:0]:O LWL[127:0]:O DLWL:O DRWL:O vss:B vdd:B xc[3:0]:I
x1 vdd vss xa[7] xa[6] xa[5] xa[4] xa[3] xa[2] xa[1] xa[0] xb[3] xb[2] xb[1] xb[0] xc[0] men LWL[31] LWL[30] LWL[29] LWL[28]
+ LWL[27] LWL[26] LWL[25] LWL[24] LWL[23] LWL[22] LWL[21] LWL[20] LWL[19] LWL[18] LWL[17] LWL[16] LWL[15] LWL[14] LWL[13] LWL[12] LWL[11]
+ LWL[10] LWL[9] LWL[8] LWL[7] LWL[6] LWL[5] LWL[4] LWL[3] LWL[2] LWL[1] LWL[0] RWL[31] RWL[30] RWL[29] RWL[28] RWL[27] RWL[26] RWL[25]
+ RWL[24] RWL[23] RWL[22] RWL[21] RWL[20] RWL[19] RWL[18] RWL[17] RWL[16] RWL[15] RWL[14] RWL[13] RWL[12] RWL[11] RWL[10] RWL[9] RWL[8]
+ RWL[7] RWL[6] RWL[5] RWL[4] RWL[3] RWL[2] RWL[1] RWL[0] xdec32_3v1024x8m81
x2[128] vdd vdd vss pmoscap_R270_3v1024x8m81
x2[127] vdd vdd vss pmoscap_R270_3v1024x8m81
x2[126] vdd vdd vss pmoscap_R270_3v1024x8m81
x2[125] vdd vdd vss pmoscap_R270_3v1024x8m81
x2[124] vdd vdd vss pmoscap_R270_3v1024x8m81
x2[123] vdd vdd vss pmoscap_R270_3v1024x8m81
x2[122] vdd vdd vss pmoscap_R270_3v1024x8m81
x2[121] vdd vdd vss pmoscap_R270_3v1024x8m81
x2[120] vdd vdd vss pmoscap_R270_3v1024x8m81
x2[119] vdd vdd vss pmoscap_R270_3v1024x8m81
x2[118] vdd vdd vss pmoscap_R270_3v1024x8m81
x2[117] vdd vdd vss pmoscap_R270_3v1024x8m81
x2[116] vdd vdd vss pmoscap_R270_3v1024x8m81
x2[115] vdd vdd vss pmoscap_R270_3v1024x8m81
x2[114] vdd vdd vss pmoscap_R270_3v1024x8m81
x2[113] vdd vdd vss pmoscap_R270_3v1024x8m81
x2[112] vdd vdd vss pmoscap_R270_3v1024x8m81
x2[111] vdd vdd vss pmoscap_R270_3v1024x8m81
x2[110] vdd vdd vss pmoscap_R270_3v1024x8m81
x2[109] vdd vdd vss pmoscap_R270_3v1024x8m81
x2[108] vdd vdd vss pmoscap_R270_3v1024x8m81
x2[107] vdd vdd vss pmoscap_R270_3v1024x8m81
x2[106] vdd vdd vss pmoscap_R270_3v1024x8m81
x2[105] vdd vdd vss pmoscap_R270_3v1024x8m81
x2[104] vdd vdd vss pmoscap_R270_3v1024x8m81
x2[103] vdd vdd vss pmoscap_R270_3v1024x8m81
x2[102] vdd vdd vss pmoscap_R270_3v1024x8m81
x2[101] vdd vdd vss pmoscap_R270_3v1024x8m81
x2[100] vdd vdd vss pmoscap_R270_3v1024x8m81
x2[99] vdd vdd vss pmoscap_R270_3v1024x8m81
x2[98] vdd vdd vss pmoscap_R270_3v1024x8m81
x2[97] vdd vdd vss pmoscap_R270_3v1024x8m81
x2[96] vdd vdd vss pmoscap_R270_3v1024x8m81
x2[95] vdd vdd vss pmoscap_R270_3v1024x8m81
x2[94] vdd vdd vss pmoscap_R270_3v1024x8m81
x2[93] vdd vdd vss pmoscap_R270_3v1024x8m81
x2[92] vdd vdd vss pmoscap_R270_3v1024x8m81
x2[91] vdd vdd vss pmoscap_R270_3v1024x8m81
x2[90] vdd vdd vss pmoscap_R270_3v1024x8m81
x2[89] vdd vdd vss pmoscap_R270_3v1024x8m81
x2[88] vdd vdd vss pmoscap_R270_3v1024x8m81
x2[87] vdd vdd vss pmoscap_R270_3v1024x8m81
x2[86] vdd vdd vss pmoscap_R270_3v1024x8m81
x2[85] vdd vdd vss pmoscap_R270_3v1024x8m81
x2[84] vdd vdd vss pmoscap_R270_3v1024x8m81
x2[83] vdd vdd vss pmoscap_R270_3v1024x8m81
x2[82] vdd vdd vss pmoscap_R270_3v1024x8m81
x2[81] vdd vdd vss pmoscap_R270_3v1024x8m81
x2[80] vdd vdd vss pmoscap_R270_3v1024x8m81
x2[79] vdd vdd vss pmoscap_R270_3v1024x8m81
x2[78] vdd vdd vss pmoscap_R270_3v1024x8m81
x2[77] vdd vdd vss pmoscap_R270_3v1024x8m81
x2[76] vdd vdd vss pmoscap_R270_3v1024x8m81
x2[75] vdd vdd vss pmoscap_R270_3v1024x8m81
x2[74] vdd vdd vss pmoscap_R270_3v1024x8m81
x2[73] vdd vdd vss pmoscap_R270_3v1024x8m81
x2[72] vdd vdd vss pmoscap_R270_3v1024x8m81
x2[71] vdd vdd vss pmoscap_R270_3v1024x8m81
x2[70] vdd vdd vss pmoscap_R270_3v1024x8m81
x2[69] vdd vdd vss pmoscap_R270_3v1024x8m81
x2[68] vdd vdd vss pmoscap_R270_3v1024x8m81
x2[67] vdd vdd vss pmoscap_R270_3v1024x8m81
x2[66] vdd vdd vss pmoscap_R270_3v1024x8m81
x2[65] vdd vdd vss pmoscap_R270_3v1024x8m81
x2[64] vdd vdd vss pmoscap_R270_3v1024x8m81
x2[63] vdd vdd vss pmoscap_R270_3v1024x8m81
x2[62] vdd vdd vss pmoscap_R270_3v1024x8m81
x2[61] vdd vdd vss pmoscap_R270_3v1024x8m81
x2[60] vdd vdd vss pmoscap_R270_3v1024x8m81
x2[59] vdd vdd vss pmoscap_R270_3v1024x8m81
x2[58] vdd vdd vss pmoscap_R270_3v1024x8m81
x2[57] vdd vdd vss pmoscap_R270_3v1024x8m81
x2[56] vdd vdd vss pmoscap_R270_3v1024x8m81
x2[55] vdd vdd vss pmoscap_R270_3v1024x8m81
x2[54] vdd vdd vss pmoscap_R270_3v1024x8m81
x2[53] vdd vdd vss pmoscap_R270_3v1024x8m81
x2[52] vdd vdd vss pmoscap_R270_3v1024x8m81
x2[51] vdd vdd vss pmoscap_R270_3v1024x8m81
x2[50] vdd vdd vss pmoscap_R270_3v1024x8m81
x2[49] vdd vdd vss pmoscap_R270_3v1024x8m81
x2[48] vdd vdd vss pmoscap_R270_3v1024x8m81
x2[47] vdd vdd vss pmoscap_R270_3v1024x8m81
x2[46] vdd vdd vss pmoscap_R270_3v1024x8m81
x2[45] vdd vdd vss pmoscap_R270_3v1024x8m81
x2[44] vdd vdd vss pmoscap_R270_3v1024x8m81
x2[43] vdd vdd vss pmoscap_R270_3v1024x8m81
x2[42] vdd vdd vss pmoscap_R270_3v1024x8m81
x2[41] vdd vdd vss pmoscap_R270_3v1024x8m81
x2[40] vdd vdd vss pmoscap_R270_3v1024x8m81
x2[39] vdd vdd vss pmoscap_R270_3v1024x8m81
x2[38] vdd vdd vss pmoscap_R270_3v1024x8m81
x2[37] vdd vdd vss pmoscap_R270_3v1024x8m81
x2[36] vdd vdd vss pmoscap_R270_3v1024x8m81
x2[35] vdd vdd vss pmoscap_R270_3v1024x8m81
x2[34] vdd vdd vss pmoscap_R270_3v1024x8m81
x2[33] vdd vdd vss pmoscap_R270_3v1024x8m81
x2[32] vdd vdd vss pmoscap_R270_3v1024x8m81
x2[31] vdd vdd vss pmoscap_R270_3v1024x8m81
x2[30] vdd vdd vss pmoscap_R270_3v1024x8m81
x2[29] vdd vdd vss pmoscap_R270_3v1024x8m81
x2[28] vdd vdd vss pmoscap_R270_3v1024x8m81
x2[27] vdd vdd vss pmoscap_R270_3v1024x8m81
x2[26] vdd vdd vss pmoscap_R270_3v1024x8m81
x2[25] vdd vdd vss pmoscap_R270_3v1024x8m81
x2[24] vdd vdd vss pmoscap_R270_3v1024x8m81
x2[23] vdd vdd vss pmoscap_R270_3v1024x8m81
x2[22] vdd vdd vss pmoscap_R270_3v1024x8m81
x2[21] vdd vdd vss pmoscap_R270_3v1024x8m81
x2[20] vdd vdd vss pmoscap_R270_3v1024x8m81
x2[19] vdd vdd vss pmoscap_R270_3v1024x8m81
x2[18] vdd vdd vss pmoscap_R270_3v1024x8m81
x2[17] vdd vdd vss pmoscap_R270_3v1024x8m81
x2[16] vdd vdd vss pmoscap_R270_3v1024x8m81
x2[15] vdd vdd vss pmoscap_R270_3v1024x8m81
x2[14] vdd vdd vss pmoscap_R270_3v1024x8m81
x2[13] vdd vdd vss pmoscap_R270_3v1024x8m81
x2[12] vdd vdd vss pmoscap_R270_3v1024x8m81
x2[11] vdd vdd vss pmoscap_R270_3v1024x8m81
x2[10] vdd vdd vss pmoscap_R270_3v1024x8m81
x2[9] vdd vdd vss pmoscap_R270_3v1024x8m81
x2[8] vdd vdd vss pmoscap_R270_3v1024x8m81
x2[7] vdd vdd vss pmoscap_R270_3v1024x8m81
x2[6] vdd vdd vss pmoscap_R270_3v1024x8m81
x2[5] vdd vdd vss pmoscap_R270_3v1024x8m81
x2[4] vdd vdd vss pmoscap_R270_3v1024x8m81
x2[3] vdd vdd vss pmoscap_R270_3v1024x8m81
x2[2] vdd vdd vss pmoscap_R270_3v1024x8m81
x2[1] vdd vdd vss pmoscap_R270_3v1024x8m81
x2[0] vdd vdd vss pmoscap_R270_3v1024x8m81
x2 vdd DLWL vss men DRWL ddec_3v1024x8m81
x3 vdd vss xa[7] xa[6] xa[5] xa[4] xa[3] xa[2] xa[1] xa[0] xb[3] xb[2] xb[1] xb[0] xc[1] men LWL[63] LWL[62] LWL[61] LWL[60]
+ LWL[59] LWL[58] LWL[57] LWL[56] LWL[55] LWL[54] LWL[53] LWL[52] LWL[51] LWL[50] LWL[49] LWL[48] LWL[47] LWL[46] LWL[45] LWL[44] LWL[43]
+ LWL[42] LWL[41] LWL[40] LWL[39] LWL[38] LWL[37] LWL[36] LWL[35] LWL[34] LWL[33] LWL[32] RWL[63] RWL[62] RWL[61] RWL[60] RWL[59] RWL[58]
+ RWL[57] RWL[56] RWL[55] RWL[54] RWL[53] RWL[52] RWL[51] RWL[50] RWL[49] RWL[48] RWL[47] RWL[46] RWL[45] RWL[44] RWL[43] RWL[42] RWL[41]
+ RWL[40] RWL[39] RWL[38] RWL[37] RWL[36] RWL[35] RWL[34] RWL[33] RWL[32] xdec32_3v1024x8m81
x4 vdd vss xa[7] xa[6] xa[5] xa[4] xa[3] xa[2] xa[1] xa[0] xb[3] xb[2] xb[1] xb[0] xc[2] men LWL[95] LWL[94] LWL[93] LWL[92]
+ LWL[91] LWL[90] LWL[89] LWL[88] LWL[87] LWL[86] LWL[85] LWL[84] LWL[83] LWL[82] LWL[81] LWL[80] LWL[79] LWL[78] LWL[77] LWL[76] LWL[75]
+ LWL[74] LWL[73] LWL[72] LWL[71] LWL[70] LWL[69] LWL[68] LWL[67] LWL[66] LWL[65] LWL[64] RWL[95] RWL[94] RWL[93] RWL[92] RWL[91] RWL[90]
+ RWL[89] RWL[88] RWL[87] RWL[86] RWL[85] RWL[84] RWL[83] RWL[82] RWL[81] RWL[80] RWL[79] RWL[78] RWL[77] RWL[76] RWL[75] RWL[74] RWL[73]
+ RWL[72] RWL[71] RWL[70] RWL[69] RWL[68] RWL[67] RWL[66] RWL[65] RWL[64] xdec32_3v1024x8m81
x5 vdd vss xa[7] xa[6] xa[5] xa[4] xa[3] xa[2] xa[1] xa[0] xb[3] xb[2] xb[1] xb[0] xc[3] men LWL[127] LWL[126] LWL[125] LWL[124]
+ LWL[123] LWL[122] LWL[121] LWL[120] LWL[119] LWL[118] LWL[117] LWL[116] LWL[115] LWL[114] LWL[113] LWL[112] LWL[111] LWL[110] LWL[109]
+ LWL[108] LWL[107] LWL[106] LWL[105] LWL[104] LWL[103] LWL[102] LWL[101] LWL[100] LWL[99] LWL[98] LWL[97] LWL[96] RWL[127] RWL[126]
+ RWL[125] RWL[124] RWL[123] RWL[122] RWL[121] RWL[120] RWL[119] RWL[118] RWL[117] RWL[116] RWL[115] RWL[114] RWL[113] RWL[112] RWL[111]
+ RWL[110] RWL[109] RWL[108] RWL[107] RWL[106] RWL[105] RWL[104] RWL[103] RWL[102] RWL[101] RWL[100] RWL[99] RWL[98] RWL[97] RWL[96]
+ xdec32_3v1024x8m81
.ends


* expanding   symbol:  control_3v1024x8_3v1024x8m81.sym # of pins=15
** sym_path: /foss/designs/ip/extended_ram/gf180mcu_ocd_ip_sram/cells/gf180mcu_ocd_ip_sram__sram1024x16m8wm1/xschem/control_3v1024x8_3v1024x8m81.sym
** sch_path: /foss/designs/ip/extended_ram/gf180mcu_ocd_ip_sram/cells/gf180mcu_ocd_ip_sram__sram1024x16m8wm1/xschem/control_3v1024x8_3v1024x8m81.sch
.subckt control_3v1024x8_3v1024x8m81 vss vdd A[9] A[8] A[7] A[6] A[5] A[4] A[3] A[2] A[1] A[0] xc[3] xc[2] xc[1] xc[0] xb[3] xb[2]
+ xb[1] xb[0] xa[7] xa[6] xa[5] xa[4] xa[3] xa[2] xa[1] xa[0] clk men IGWEN GWEN GWE RYS[7] RYS[6] RYS[5] RYS[4] RYS[3] RYS[2] RYS[1]
+ RYS[0] LYS[7] LYS[6] LYS[5] LYS[4] LYS[3] LYS[2] LYS[1] LYS[0] tblhl CEN
*.PININFO clk:I GWEN:I IGWEN:O GWE:O A[9:0]:I xc[3:0]:O xb[3:0]:O xa[7:0]:O men:O RYS[7:0]:O LYS[7:0]:O vss:B vdd:B tblhl:I CEN:I
x1 RYS[7] RYS[6] RYS[5] RYS[4] RYS[3] RYS[2] RYS[1] RYS[0] LYS[7] LYS[6] LYS[5] LYS[4] LYS[3] LYS[2] LYS[1] LYS[0] vdd clk men vss
+ A[2] A[1] A[0] ypredec1_3v1024x8m81
x2 tblhl men CEN vdd clk vss GWEN IGWEN GWE gen_3v1024x8_3v1024x8m81
x3 vdd vss clk xc[3] xc[2] xc[1] xc[0] A[9] A[8] A[7] A[6] A[5] A[4] A[3] xb[3] xb[2] xb[1] xb[0] men xa[7] xa[6] xa[5] xa[4]
+ xa[3] xa[2] xa[1] xa[0] prexdec_top_3v1024x8m81
.ends


* expanding   symbol:  col_1024a_3v1024x8m81.sym # of pins=11
** sym_path: /foss/designs/ip/extended_ram/gf180mcu_ocd_ip_sram/cells/gf180mcu_ocd_ip_sram__sram1024x16m8wm1/xschem/col_1024a_3v1024x8m81.sym
** sch_path: /foss/designs/ip/extended_ram/gf180mcu_ocd_ip_sram/cells/gf180mcu_ocd_ip_sram__sram1024x16m8wm1/xschem/col_1024a_3v1024x8m81.sch