* NGSPICE file created from gf180mcu_ocd_ip_sram__sram512x8m8wm1.ext - technology: gf180mcuD

.subckt x018SRAM_cell1_dummy_512x8m81 m3_82_330# a_248_342# a_248_592# w_82_512# a_62_178#
+ m2_346_89# m2_134_89# VSUBS
X0 a_248_592# a_192_298# a_110_250# w_82_512# pfet_03v3 ad=0.1613p pd=1.39u as=0.1238p ps=1.44u w=0.28u l=0.28u
X1 a_248_342# a_192_298# a_110_250# VSUBS nfet_03v3 ad=0.171p pd=1.33u as=0.15665p ps=1.32u w=0.45u l=0.28u
X2 a_192_298# a_110_250# a_248_592# w_82_512# pfet_03v3 ad=0.1238p pd=1.44u as=0.1613p ps=1.39u w=0.28u l=0.28u
X3 a_192_298# a_110_250# a_248_342# VSUBS nfet_03v3 ad=0.15665p pd=1.32u as=0.171p ps=1.33u w=0.45u l=0.28u
X4 a_110_250# a_62_178# a_110_96# VSUBS nfet_03v3 ad=0.15665p pd=1.32u as=0.1208p ps=1.42u w=0.28u l=0.36u
X5 a_192_298# a_62_178# a_430_96# VSUBS nfet_03v3 ad=0.15665p pd=1.32u as=0.1208p ps=1.42u w=0.28u l=0.36u
.ends

.subckt x018SRAM_cell1_cutPC_512x8m81 m3_82_330# a_248_342# a_248_592# w_82_512# a_62_178#
+ a_430_96# a_110_96# VSUBS
X0 a_248_592# a_192_298# a_110_250# w_82_512# pfet_03v3 ad=0.1613p pd=1.39u as=0.1238p ps=1.44u w=0.28u l=0.28u
X1 a_248_342# a_192_298# a_110_250# VSUBS nfet_03v3 ad=0.171p pd=1.33u as=0.15665p ps=1.32u w=0.45u l=0.28u
X2 a_192_298# a_110_250# a_248_592# w_82_512# pfet_03v3 ad=0.1238p pd=1.44u as=0.1613p ps=1.39u w=0.28u l=0.28u
X3 a_192_298# a_110_250# a_248_342# VSUBS nfet_03v3 ad=0.15665p pd=1.32u as=0.171p ps=1.33u w=0.45u l=0.28u
X4 a_110_250# a_62_178# a_110_96# VSUBS nfet_03v3 ad=0.15665p pd=1.32u as=0.1208p ps=1.42u w=0.28u l=0.36u
X5 a_192_298# a_62_178# a_430_96# VSUBS nfet_03v3 ad=0.15665p pd=1.32u as=0.1208p ps=1.42u w=0.28u l=0.36u
.ends

.subckt array16_512_dummy_01_512x8m81 018SRAM_cell1_cutPC_512x8m81_62/w_82_512# 018SRAM_cell1_cutPC_512x8m81_52/a_62_178#
+ 018SRAM_cell1_cutPC_512x8m81_52/m3_82_330# 018SRAM_cell1_cutPC_512x8m81_13/m3_82_330#
+ 018SRAM_cell1_cutPC_512x8m81_44/w_82_512# 018SRAM_cell1_cutPC_512x8m81_4/a_248_592#
+ 018SRAM_cell1_cutPC_512x8m81_4/w_82_512# 018SRAM_cell1_cutPC_512x8m81_13/a_248_342#
+ 018SRAM_cell1_cutPC_512x8m81_52/a_248_342# 018SRAM_cell1_cutPC_512x8m81_62/m3_82_330#
+ 018SRAM_cell1_cutPC_512x8m81_23/m3_82_330# 018SRAM_cell1_cutPC_512x8m81_62/a_248_342#
+ 018SRAM_cell1_cutPC_512x8m81_37/a_62_178# 018SRAM_cell1_cutPC_512x8m81_23/a_248_342#
+ 018SRAM_cell1_cutPC_512x8m81_49/w_82_512# 018SRAM_cell1_cutPC_512x8m81_50/a_248_592#
+ 018SRAM_cell1_cutPC_512x8m81_5/m3_82_330# 018SRAM_cell1_cutPC_512x8m81_33/a_248_342#
+ 018SRAM_cell1_cutPC_512x8m81_33/m3_82_330# 018SRAM_cell1_cutPC_512x8m81_5/a_248_342#
+ 018SRAM_cell1_cutPC_512x8m81_33/a_62_178# 018SRAM_cell1_cutPC_512x8m81_8/a_62_178#
+ 018SRAM_cell1_cutPC_512x8m81_53/w_82_512# 018SRAM_cell1_cutPC_512x8m81_39/a_248_592#
+ 018SRAM_cell1_cutPC_512x8m81_43/m3_82_330# 018SRAM_cell1_cutPC_512x8m81_43/a_248_342#
+ 018SRAM_cell1_cutPC_512x8m81_62/a_62_178# 018SRAM_cell1_cutPC_512x8m81_18/a_62_178#
+ 018SRAM_cell1_cutPC_512x8m81_4/a_62_178# 018SRAM_cell1_cutPC_512x8m81_14/a_248_342#
+ 018SRAM_cell1_cutPC_512x8m81_53/a_248_342# 018SRAM_cell1_cutPC_512x8m81_5/a_248_592#
+ 018SRAM_cell1_cutPC_512x8m81_14/m3_82_330# 018SRAM_cell1_cutPC_512x8m81_53/m3_82_330#
+ 018SRAM_cell1_cutPC_512x8m81_34/w_82_512# 018SRAM_cell1_cutPC_512x8m81_0/a_62_178#
+ 018SRAM_cell1_cutPC_512x8m81_14/a_62_178# VDD_uq0 018SRAM_cell1_cutPC_512x8m81_24/m3_82_330#
+ 018SRAM_cell1_cutPC_512x8m81_63/a_248_342# 018SRAM_cell1_cutPC_512x8m81_63/m3_82_330#
+ 018SRAM_cell1_cutPC_512x8m81_24/a_248_342# 018SRAM_cell1_cutPC_512x8m81_47/a_62_178#
+ 018SRAM_cell1_cutPC_512x8m81_38/w_82_512# 018SRAM_cell1_cutPC_512x8m81_6/m3_82_330#
+ 018SRAM_cell1_cutPC_512x8m81_34/m3_82_330# 018SRAM_cell1_cutPC_512x8m81_49/a_248_592#
+ 018SRAM_cell1_cutPC_512x8m81_6/a_248_342# 018SRAM_cell1_cutPC_512x8m81_34/a_248_342#
+ 018SRAM_cell1_cutPC_512x8m81_43/a_62_178# 018SRAM_cell1_cutPC_512x8m81_10/a_62_178#
+ 018SRAM_cell1_cutPC_512x8m81_42/w_82_512# 018SRAM_cell1_cutPC_512x8m81_38/a_248_592#
+ 018SRAM_cell1_cutPC_512x8m81_44/m3_82_330# 018SRAM_cell1_cutPC_512x8m81_44/a_248_342#
+ 018SRAM_cell1_cutPC_512x8m81_54/m3_82_330# 018SRAM_cell1_cutPC_512x8m81_6/a_248_592#
+ 018SRAM_cell1_cutPC_512x8m81_28/a_62_178# 018SRAM_cell1_cutPC_512x8m81_15/m3_82_330#
+ 018SRAM_cell1_cutPC_512x8m81_54/a_248_342# 018SRAM_cell1_cutPC_512x8m81_15/a_248_342#
+ 018SRAM_cell1_cutPC_512x8m81_25/m3_82_330# 018SRAM_cell1_cutPC_512x8m81_24/a_62_178#
+ 018SRAM_cell1_cutPC_512x8m81_57/a_62_178# 018SRAM_cell1_cutPC_512x8m81_25/a_248_342#
+ 018SRAM_cell1_cutPC_512x8m81_9/w_82_512# 018SRAM_cell1_cutPC_512x8m81_35/m3_82_330#
+ 018SRAM_cell1_cutPC_512x8m81_7/a_248_342# 018SRAM_cell1_cutPC_512x8m81_7/m3_82_330#
+ 018SRAM_cell1_cutPC_512x8m81_48/a_248_592# 018SRAM_cell1_cutPC_512x8m81_35/a_248_342#
+ 018SRAM_cell1_cutPC_512x8m81_20/a_62_178# 018SRAM_cell1_cutPC_512x8m81_53/a_62_178#
+ 018SRAM_cell1_cutPC_512x8m81_5/w_82_512# 018SRAM_cell1_cutPC_512x8m81_45/m3_82_330#
+ 018SRAM_cell1_cutPC_512x8m81_37/a_248_592# 018SRAM_cell1_cutPC_512x8m81_43/w_82_512#
+ 018SRAM_cell1_cutPC_512x8m81_45/a_248_342# 018SRAM_cell1_cutPC_512x8m81_38/a_62_178#
+ 018SRAM_cell1_cutPC_512x8m81_1/w_82_512# 018SRAM_cell1_cutPC_512x8m81_55/m3_82_330#
+ 018SRAM_cell1_cutPC_512x8m81_16/m3_82_330# 018SRAM_cell1_cutPC_512x8m81_48/w_82_512#
+ 018SRAM_cell1_cutPC_512x8m81_7/a_248_592# 018SRAM_cell1_cutPC_512x8m81_55/a_248_342#
+ 018SRAM_cell1_cutPC_512x8m81_16/a_248_342# 018SRAM_cell1_cutPC_512x8m81_26/m3_82_330#
+ 018SRAM_cell1_cutPC_512x8m81_34/a_62_178# 018SRAM_cell1_cutPC_512x8m81_9/a_62_178#
+ 018SRAM_cell1_cutPC_512x8m81_26/a_248_342# 018SRAM_cell1_cutPC_512x8m81_52/w_82_512#
+ 018SRAM_cell1_cutPC_512x8m81_45/a_248_592# 018SRAM_cell1_cutPC_512x8m81_36/m3_82_330#
+ 018SRAM_cell1_cutPC_512x8m81_36/a_248_342# 018SRAM_cell1_cutPC_512x8m81_8/m3_82_330#
+ 018SRAM_cell1_cutPC_512x8m81_8/a_248_342# 018SRAM_cell1_cutPC_512x8m81_30/a_62_178#
+ 018SRAM_cell1_cutPC_512x8m81_19/a_62_178# 018SRAM_cell1_cutPC_512x8m81_5/a_62_178#
+ 018SRAM_cell1_cutPC_512x8m81_63/a_62_178# 018SRAM_cell1_cutPC_512x8m81_33/w_82_512#
+ VSS_uq0 018SRAM_cell1_cutPC_512x8m81_46/m3_82_330# 018SRAM_cell1_cutPC_512x8m81_36/a_248_592#
+ 018SRAM_cell1_cutPC_512x8m81_1/a_62_178# 018SRAM_cell1_cutPC_512x8m81_8/a_248_592#
+ 018SRAM_cell1_cutPC_512x8m81_48/a_62_178# 018SRAM_cell1_cutPC_512x8m81_15/a_62_178#
+ 018SRAM_cell1_cutPC_512x8m81_56/m3_82_330# 018SRAM_cell1_cutPC_512x8m81_17/m3_82_330#
+ 018SRAM_cell1_cutPC_512x8m81_56/a_248_342# 018SRAM_cell1_cutPC_512x8m81_17/a_248_342#
+ 018SRAM_cell1_cutPC_512x8m81_37/w_82_512# 018SRAM_cell1_cutPC_512x8m81_44/a_62_178#
+ 018SRAM_cell1_cutPC_512x8m81_11/a_62_178# 018SRAM_cell1_cutPC_512x8m81_27/a_248_342#
+ 018SRAM_cell1_cutPC_512x8m81_27/m3_82_330# 018SRAM_cell1_cutPC_512x8m81_41/w_82_512#
+ 018SRAM_cell1_cutPC_512x8m81_9/m3_82_330# 018SRAM_cell1_cutPC_512x8m81_47/a_248_592#
+ 018SRAM_cell1_cutPC_512x8m81_37/m3_82_330# 018SRAM_cell1_cutPC_512x8m81_9/a_248_342#
+ 018SRAM_cell1_cutPC_512x8m81_37/a_248_342# 018SRAM_cell1_cutPC_512x8m81_40/a_62_178#
+ 018SRAM_cell1_cutPC_512x8m81_29/a_62_178# 018SRAM_cell1_cutPC_512x8m81_47/m3_82_330#
+ 018SRAM_cell1_cutPC_512x8m81_35/a_248_592# 018SRAM_cell1_cutPC_512x8m81_47/a_248_342#
+ 018SRAM_cell1_cutPC_512x8m81_9/a_248_592# 018SRAM_cell1_cutPC_512x8m81_25/a_62_178#
+ 018SRAM_cell1_cutPC_512x8m81_58/a_62_178# 018SRAM_cell1_cutPC_512x8m81_57/m3_82_330#
+ 018SRAM_cell1_cutPC_512x8m81_18/m3_82_330# 018SRAM_cell1_cutPC_512x8m81_57/a_248_342#
+ 018SRAM_cell1_cutPC_512x8m81_18/a_248_342# 018SRAM_cell1_cutPC_512x8m81_28/m3_82_330#
+ 018SRAM_cell1_cutPC_512x8m81_21/a_62_178# 018SRAM_cell1_cutPC_512x8m81_54/a_62_178#
+ 018SRAM_cell1_cutPC_512x8m81_61/w_82_512# 018SRAM_cell1_cutPC_512x8m81_28/a_248_342#
+ 018SRAM_cell1_cutPC_512x8m81_6/w_82_512# 018SRAM_cell1_cutPC_512x8m81_38/m3_82_330#
+ 018SRAM_cell1_cutPC_512x8m81_44/a_248_592# 018SRAM_cell1_cutPC_512x8m81_38/a_248_342#
+ 018SRAM_cell1_cutPC_512x8m81_39/a_62_178# 018SRAM_cell1_cutPC_512x8m81_50/a_62_178#
+ 018SRAM_cell1_cutPC_512x8m81_2/w_82_512# 018SRAM_cell1_cutPC_512x8m81_45/w_82_512#
+ 018SRAM_cell1_cutPC_512x8m81_48/m3_82_330# 018SRAM_cell1_cutPC_512x8m81_34/a_248_592#
+ 018SRAM_cell1_cutPC_512x8m81_48/a_248_342# 018SRAM_cell1_cutPC_512x8m81_35/a_62_178#
+ 018SRAM_cell1_cutPC_512x8m81_51/w_82_512# 018SRAM_cell1_cutPC_512x8m81_58/m3_82_330#
+ 018SRAM_cell1_cutPC_512x8m81_19/m3_82_330# 018SRAM_cell1_cutPC_512x8m81_58/a_248_342#
+ 018SRAM_cell1_cutPC_512x8m81_19/a_248_342# 018SRAM_cell1_cutPC_512x8m81_31/a_62_178#
+ 018SRAM_cell1_cutPC_512x8m81_29/m3_82_330# 018SRAM_cell1_cutPC_512x8m81_29/a_248_342#
+ 018SRAM_cell1_cutPC_512x8m81_6/a_62_178# 018SRAM_cell1_cutPC_512x8m81_0/m3_82_330#
+ 018SRAM_cell1_cutPC_512x8m81_0/a_248_342# 018SRAM_cell1_cutPC_512x8m81_43/a_248_592#
+ 018SRAM_cell1_cutPC_512x8m81_39/m3_82_330# 018SRAM_cell1_cutPC_512x8m81_39/a_248_342#
+ 018SRAM_cell1_cutPC_512x8m81_60/a_62_178# 018SRAM_cell1_cutPC_512x8m81_2/a_62_178#
+ 018SRAM_cell1_cutPC_512x8m81_16/a_62_178# 018SRAM_cell1_cutPC_512x8m81_49/a_62_178#
+ 018SRAM_cell1_cutPC_512x8m81_36/w_82_512# 018SRAM_cell1_cutPC_512x8m81_49/m3_82_330#
+ 018SRAM_cell1_cutPC_512x8m81_49/a_248_342# 018SRAM_cell1_cutPC_512x8m81_33/a_248_592#
+ 018SRAM_cell1_cutPC_512x8m81_12/a_62_178# 018SRAM_cell1_cutPC_512x8m81_40/w_82_512#
+ 018SRAM_cell1_cutPC_512x8m81_59/m3_82_330# 018SRAM_cell1_cutPC_512x8m81_45/a_62_178#
+ 018SRAM_cell1_cutPC_512x8m81_59/a_248_342# 018SRAM_cell1_cutPC_512x8m81_41/a_62_178#
+ 018SRAM_cell1_cutPC_512x8m81_1/m3_82_330# 018SRAM_cell1_cutPC_512x8m81_1/a_248_342#
+ 018SRAM_cell1_cutPC_512x8m81_26/a_62_178# 018SRAM_cell1_cutPC_512x8m81_59/a_62_178#
+ 018SRAM_cell1_cutPC_512x8m81_10/m3_82_330# 018SRAM_cell1_cutPC_512x8m81_22/a_62_178#
+ 018SRAM_cell1_cutPC_512x8m81_55/a_62_178# 018SRAM_cell1_cutPC_512x8m81_1/a_248_592#
+ 018SRAM_cell1_cutPC_512x8m81_32/w_82_512# 018SRAM_cell1_cutPC_512x8m81_7/w_82_512#
+ 018SRAM_cell1_cutPC_512x8m81_10/a_248_342# 018SRAM_cell1_cutPC_512x8m81_20/m3_82_330#
+ 018SRAM_cell1_cutPC_512x8m81_51/a_62_178# 018SRAM_cell1_cutPC_512x8m81_3/w_82_512#
+ 018SRAM_cell1_cutPC_512x8m81_47/w_82_512# 018SRAM_cell1_cutPC_512x8m81_20/a_248_342#
+ 018SRAM_cell1_cutPC_512x8m81_2/m3_82_330# 018SRAM_cell1_cutPC_512x8m81_30/m3_82_330#
+ 018SRAM_cell1_cutPC_512x8m81_53/a_248_592# 018SRAM_cell1_cutPC_512x8m81_30/a_248_342#
+ 018SRAM_cell1_cutPC_512x8m81_0/w_82_512# 018SRAM_cell1_cutPC_512x8m81_36/a_62_178#
+ 018SRAM_cell1_cutPC_512x8m81_50/w_82_512# 018SRAM_cell1_cutPC_512x8m81_40/m3_82_330#
+ VDD VSS 018SRAM_cell1_cutPC_512x8m81_40/a_248_342# 018SRAM_cell1_cutPC_512x8m81_42/a_248_592#
+ 018SRAM_cell1_cutPC_512x8m81_50/m3_82_330# 018SRAM_cell1_cutPC_512x8m81_11/m3_82_330#
+ 018SRAM_cell1_cutPC_512x8m81_32/a_62_178# 018SRAM_cell1_cutPC_512x8m81_7/a_62_178#
+ 018SRAM_cell1_cutPC_512x8m81_50/a_248_342# 018SRAM_cell1_cutPC_512x8m81_2/a_248_592#
+ 018SRAM_cell1_cutPC_512x8m81_11/a_248_342# 018SRAM_cell1_cutPC_512x8m81_32/a_248_592#
+ 018SRAM_cell1_cutPC_512x8m81_9/a_430_96# 018SRAM_cell1_cutPC_512x8m81_60/m3_82_330#
+ 018SRAM_cell1_cutPC_512x8m81_61/a_62_178# 018SRAM_cell1_cutPC_512x8m81_3/a_62_178#
+ 018SRAM_cell1_cutPC_512x8m81_21/a_248_342# 018SRAM_cell1_cutPC_512x8m81_21/m3_82_330#
+ 018SRAM_cell1_cutPC_512x8m81_60/a_248_342# 018SRAM_cell1_cutPC_512x8m81_17/a_62_178#
+ 018SRAM_cell1_cutPC_512x8m81_35/w_82_512# 018SRAM_cell1_cutPC_512x8m81_3/m3_82_330#
+ 018SRAM_cell1_cutPC_512x8m81_31/m3_82_330# 018SRAM_cell1_cutPC_512x8m81_9/a_110_96#
+ 018SRAM_cell1_cutPC_512x8m81_31/a_248_342# 018SRAM_cell1_cutPC_512x8m81_52/a_248_592#
+ 018SRAM_cell1_cutPC_512x8m81_3/a_248_342# 018SRAM_cell1_cutPC_512x8m81_13/a_62_178#
+ 018SRAM_cell1_cutPC_512x8m81_46/a_62_178# 018SRAM_cell1_cutPC_512x8m81_39/w_82_512#
+ 018SRAM_cell1_cutPC_512x8m81_41/a_248_342# 018SRAM_cell1_cutPC_512x8m81_41/m3_82_330#
+ 018SRAM_cell1_cutPC_512x8m81_41/a_248_592# 018SRAM_cell1_cutPC_512x8m81_42/a_62_178#
+ 018SRAM_cell1_cutPC_512x8m81_51/m3_82_330# 018SRAM_cell1_cutPC_512x8m81_3/a_248_592#
+ 018SRAM_cell1_cutPC_512x8m81_12/a_248_342# 018SRAM_cell1_cutPC_512x8m81_51/a_248_342#
+ 018SRAM_cell1_cutPC_512x8m81_61/a_248_592# 018SRAM_cell1_cutPC_512x8m81_12/m3_82_330#
+ 018SRAM_cell1_cutPC_512x8m81_61/m3_82_330# 018SRAM_cell1_cutPC_512x8m81_22/a_248_342#
+ 018SRAM_cell1_cutPC_512x8m81_27/a_62_178# 018SRAM_cell1_cutPC_512x8m81_22/m3_82_330#
+ 018SRAM_cell1_cutPC_512x8m81_61/a_248_342# 018SRAM_cell1_cutPC_512x8m81_4/m3_82_330#
+ 018SRAM_cell1_cutPC_512x8m81_32/m3_82_330# 018SRAM_cell1_cutPC_512x8m81_51/a_248_592#
+ 018SRAM_cell1_cutPC_512x8m81_32/a_248_342# 018SRAM_cell1_cutPC_512x8m81_4/a_248_342#
+ 018SRAM_cell1_cutPC_512x8m81_23/a_62_178# 018SRAM_cell1_cutPC_512x8m81_56/a_62_178#
+ 018SRAM_cell1_cutPC_512x8m81_8/w_82_512# 018SRAM_cell1_cutPC_512x8m81_42/m3_82_330#
+ 018SRAM_cell1_cutPC_512x8m81_40/a_248_592# VSUBS 018SRAM_cell1_cutPC_512x8m81_42/a_248_342#
X018SRAM_cell1_cutPC_512x8m81_3 018SRAM_cell1_cutPC_512x8m81_3/m3_82_330# 018SRAM_cell1_cutPC_512x8m81_3/a_248_342#
+ 018SRAM_cell1_cutPC_512x8m81_3/a_248_592# 018SRAM_cell1_cutPC_512x8m81_3/w_82_512#
+ 018SRAM_cell1_cutPC_512x8m81_3/a_62_178# 018SRAM_cell1_cutPC_512x8m81_9/a_430_96#
+ 018SRAM_cell1_cutPC_512x8m81_9/a_110_96# VSUBS x018SRAM_cell1_cutPC_512x8m81
X018SRAM_cell1_cutPC_512x8m81_4 018SRAM_cell1_cutPC_512x8m81_4/m3_82_330# 018SRAM_cell1_cutPC_512x8m81_4/a_248_342#
+ 018SRAM_cell1_cutPC_512x8m81_4/a_248_592# 018SRAM_cell1_cutPC_512x8m81_4/w_82_512#
+ 018SRAM_cell1_cutPC_512x8m81_4/a_62_178# 018SRAM_cell1_cutPC_512x8m81_9/a_430_96#
+ 018SRAM_cell1_cutPC_512x8m81_9/a_110_96# VSUBS x018SRAM_cell1_cutPC_512x8m81
X018SRAM_cell1_cutPC_512x8m81_5 018SRAM_cell1_cutPC_512x8m81_5/m3_82_330# 018SRAM_cell1_cutPC_512x8m81_5/a_248_342#
+ 018SRAM_cell1_cutPC_512x8m81_5/a_248_592# 018SRAM_cell1_cutPC_512x8m81_5/w_82_512#
+ 018SRAM_cell1_cutPC_512x8m81_5/a_62_178# 018SRAM_cell1_cutPC_512x8m81_9/a_430_96#
+ 018SRAM_cell1_cutPC_512x8m81_9/a_110_96# VSUBS x018SRAM_cell1_cutPC_512x8m81
X018SRAM_cell1_cutPC_512x8m81_6 018SRAM_cell1_cutPC_512x8m81_6/m3_82_330# 018SRAM_cell1_cutPC_512x8m81_6/a_248_342#
+ 018SRAM_cell1_cutPC_512x8m81_6/a_248_592# 018SRAM_cell1_cutPC_512x8m81_6/w_82_512#
+ 018SRAM_cell1_cutPC_512x8m81_6/a_62_178# 018SRAM_cell1_cutPC_512x8m81_9/a_430_96#
+ 018SRAM_cell1_cutPC_512x8m81_9/a_110_96# VSUBS x018SRAM_cell1_cutPC_512x8m81
X018SRAM_cell1_cutPC_512x8m81_7 018SRAM_cell1_cutPC_512x8m81_7/m3_82_330# 018SRAM_cell1_cutPC_512x8m81_7/a_248_342#
+ 018SRAM_cell1_cutPC_512x8m81_7/a_248_592# 018SRAM_cell1_cutPC_512x8m81_7/w_82_512#
+ 018SRAM_cell1_cutPC_512x8m81_7/a_62_178# 018SRAM_cell1_cutPC_512x8m81_9/a_430_96#
+ 018SRAM_cell1_cutPC_512x8m81_9/a_110_96# VSUBS x018SRAM_cell1_cutPC_512x8m81
X018SRAM_cell1_cutPC_512x8m81_9 018SRAM_cell1_cutPC_512x8m81_9/m3_82_330# 018SRAM_cell1_cutPC_512x8m81_9/a_248_342#
+ 018SRAM_cell1_cutPC_512x8m81_9/a_248_592# 018SRAM_cell1_cutPC_512x8m81_9/w_82_512#
+ 018SRAM_cell1_cutPC_512x8m81_9/a_62_178# 018SRAM_cell1_cutPC_512x8m81_9/a_430_96#
+ 018SRAM_cell1_cutPC_512x8m81_9/a_110_96# VSUBS x018SRAM_cell1_cutPC_512x8m81
X018SRAM_cell1_cutPC_512x8m81_8 018SRAM_cell1_cutPC_512x8m81_8/m3_82_330# 018SRAM_cell1_cutPC_512x8m81_8/a_248_342#
+ 018SRAM_cell1_cutPC_512x8m81_8/a_248_592# 018SRAM_cell1_cutPC_512x8m81_8/w_82_512#
+ 018SRAM_cell1_cutPC_512x8m81_8/a_62_178# 018SRAM_cell1_cutPC_512x8m81_9/a_430_96#
+ 018SRAM_cell1_cutPC_512x8m81_9/a_110_96# VSUBS x018SRAM_cell1_cutPC_512x8m81
X018SRAM_cell1_cutPC_512x8m81_60 018SRAM_cell1_cutPC_512x8m81_60/m3_82_330# 018SRAM_cell1_cutPC_512x8m81_60/a_248_342#
+ 018SRAM_cell1_cutPC_512x8m81_3/a_248_592# 018SRAM_cell1_cutPC_512x8m81_3/w_82_512#
+ 018SRAM_cell1_cutPC_512x8m81_60/a_62_178# 018SRAM_cell1_cutPC_512x8m81_9/a_430_96#
+ 018SRAM_cell1_cutPC_512x8m81_9/a_110_96# VSUBS x018SRAM_cell1_cutPC_512x8m81
X018SRAM_cell1_cutPC_512x8m81_50 018SRAM_cell1_cutPC_512x8m81_50/m3_82_330# 018SRAM_cell1_cutPC_512x8m81_50/a_248_342#
+ 018SRAM_cell1_cutPC_512x8m81_50/a_248_592# 018SRAM_cell1_cutPC_512x8m81_50/w_82_512#
+ 018SRAM_cell1_cutPC_512x8m81_50/a_62_178# 018SRAM_cell1_cutPC_512x8m81_9/a_430_96#
+ 018SRAM_cell1_cutPC_512x8m81_9/a_110_96# VSUBS x018SRAM_cell1_cutPC_512x8m81
X018SRAM_cell1_cutPC_512x8m81_61 018SRAM_cell1_cutPC_512x8m81_61/m3_82_330# 018SRAM_cell1_cutPC_512x8m81_61/a_248_342#
+ 018SRAM_cell1_cutPC_512x8m81_61/a_248_592# 018SRAM_cell1_cutPC_512x8m81_61/w_82_512#
+ 018SRAM_cell1_cutPC_512x8m81_61/a_62_178# 018SRAM_cell1_cutPC_512x8m81_9/a_430_96#
+ 018SRAM_cell1_cutPC_512x8m81_9/a_110_96# VSUBS x018SRAM_cell1_cutPC_512x8m81
X018SRAM_cell1_cutPC_512x8m81_40 018SRAM_cell1_cutPC_512x8m81_40/m3_82_330# 018SRAM_cell1_cutPC_512x8m81_40/a_248_342#
+ 018SRAM_cell1_cutPC_512x8m81_40/a_248_592# 018SRAM_cell1_cutPC_512x8m81_40/w_82_512#
+ 018SRAM_cell1_cutPC_512x8m81_40/a_62_178# 018SRAM_cell1_cutPC_512x8m81_9/a_430_96#
+ 018SRAM_cell1_cutPC_512x8m81_9/a_110_96# VSUBS x018SRAM_cell1_cutPC_512x8m81
X018SRAM_cell1_cutPC_512x8m81_51 018SRAM_cell1_cutPC_512x8m81_51/m3_82_330# 018SRAM_cell1_cutPC_512x8m81_51/a_248_342#
+ 018SRAM_cell1_cutPC_512x8m81_51/a_248_592# 018SRAM_cell1_cutPC_512x8m81_51/w_82_512#
+ 018SRAM_cell1_cutPC_512x8m81_51/a_62_178# 018SRAM_cell1_cutPC_512x8m81_9/a_430_96#
+ 018SRAM_cell1_cutPC_512x8m81_9/a_110_96# VSUBS x018SRAM_cell1_cutPC_512x8m81
X018SRAM_cell1_cutPC_512x8m81_62 018SRAM_cell1_cutPC_512x8m81_62/m3_82_330# 018SRAM_cell1_cutPC_512x8m81_62/a_248_342#
+ VDD_uq0 018SRAM_cell1_cutPC_512x8m81_62/w_82_512# 018SRAM_cell1_cutPC_512x8m81_62/a_62_178#
+ 018SRAM_cell1_cutPC_512x8m81_9/a_430_96# 018SRAM_cell1_cutPC_512x8m81_9/a_110_96#
+ VSUBS x018SRAM_cell1_cutPC_512x8m81
X018SRAM_cell1_cutPC_512x8m81_30 018SRAM_cell1_cutPC_512x8m81_30/m3_82_330# 018SRAM_cell1_cutPC_512x8m81_30/a_248_342#
+ 018SRAM_cell1_cutPC_512x8m81_32/a_248_592# 018SRAM_cell1_cutPC_512x8m81_32/w_82_512#
+ 018SRAM_cell1_cutPC_512x8m81_30/a_62_178# 018SRAM_cell1_cutPC_512x8m81_9/a_430_96#
+ 018SRAM_cell1_cutPC_512x8m81_9/a_110_96# VSUBS x018SRAM_cell1_cutPC_512x8m81
X018SRAM_cell1_cutPC_512x8m81_41 018SRAM_cell1_cutPC_512x8m81_41/m3_82_330# 018SRAM_cell1_cutPC_512x8m81_41/a_248_342#
+ 018SRAM_cell1_cutPC_512x8m81_41/a_248_592# 018SRAM_cell1_cutPC_512x8m81_41/w_82_512#
+ 018SRAM_cell1_cutPC_512x8m81_41/a_62_178# 018SRAM_cell1_cutPC_512x8m81_9/a_430_96#
+ 018SRAM_cell1_cutPC_512x8m81_9/a_110_96# VSUBS x018SRAM_cell1_cutPC_512x8m81
X018SRAM_cell1_cutPC_512x8m81_52 018SRAM_cell1_cutPC_512x8m81_52/m3_82_330# 018SRAM_cell1_cutPC_512x8m81_52/a_248_342#
+ 018SRAM_cell1_cutPC_512x8m81_52/a_248_592# 018SRAM_cell1_cutPC_512x8m81_52/w_82_512#
+ 018SRAM_cell1_cutPC_512x8m81_52/a_62_178# 018SRAM_cell1_cutPC_512x8m81_9/a_430_96#
+ 018SRAM_cell1_cutPC_512x8m81_9/a_110_96# VSUBS x018SRAM_cell1_cutPC_512x8m81
X018SRAM_cell1_cutPC_512x8m81_63 018SRAM_cell1_cutPC_512x8m81_63/m3_82_330# 018SRAM_cell1_cutPC_512x8m81_63/a_248_342#
+ 018SRAM_cell1_cutPC_512x8m81_2/a_248_592# 018SRAM_cell1_cutPC_512x8m81_2/w_82_512#
+ 018SRAM_cell1_cutPC_512x8m81_63/a_62_178# 018SRAM_cell1_cutPC_512x8m81_9/a_430_96#
+ 018SRAM_cell1_cutPC_512x8m81_9/a_110_96# VSUBS x018SRAM_cell1_cutPC_512x8m81
X018SRAM_cell1_cutPC_512x8m81_42 018SRAM_cell1_cutPC_512x8m81_42/m3_82_330# 018SRAM_cell1_cutPC_512x8m81_42/a_248_342#
+ 018SRAM_cell1_cutPC_512x8m81_42/a_248_592# 018SRAM_cell1_cutPC_512x8m81_42/w_82_512#
+ 018SRAM_cell1_cutPC_512x8m81_42/a_62_178# 018SRAM_cell1_cutPC_512x8m81_9/a_430_96#
+ 018SRAM_cell1_cutPC_512x8m81_9/a_110_96# VSUBS x018SRAM_cell1_cutPC_512x8m81
X018SRAM_cell1_cutPC_512x8m81_20 018SRAM_cell1_cutPC_512x8m81_20/m3_82_330# 018SRAM_cell1_cutPC_512x8m81_20/a_248_342#
+ 018SRAM_cell1_cutPC_512x8m81_42/a_248_592# 018SRAM_cell1_cutPC_512x8m81_42/w_82_512#
+ 018SRAM_cell1_cutPC_512x8m81_20/a_62_178# 018SRAM_cell1_cutPC_512x8m81_9/a_430_96#
+ 018SRAM_cell1_cutPC_512x8m81_9/a_110_96# VSUBS x018SRAM_cell1_cutPC_512x8m81
X018SRAM_cell1_cutPC_512x8m81_53 018SRAM_cell1_cutPC_512x8m81_53/m3_82_330# 018SRAM_cell1_cutPC_512x8m81_53/a_248_342#
+ 018SRAM_cell1_cutPC_512x8m81_53/a_248_592# 018SRAM_cell1_cutPC_512x8m81_53/w_82_512#
+ 018SRAM_cell1_cutPC_512x8m81_53/a_62_178# 018SRAM_cell1_cutPC_512x8m81_9/a_430_96#
+ 018SRAM_cell1_cutPC_512x8m81_9/a_110_96# VSUBS x018SRAM_cell1_cutPC_512x8m81
X018SRAM_cell1_cutPC_512x8m81_31 018SRAM_cell1_cutPC_512x8m81_31/m3_82_330# 018SRAM_cell1_cutPC_512x8m81_31/a_248_342#
+ 018SRAM_cell1_cutPC_512x8m81_61/a_248_592# 018SRAM_cell1_cutPC_512x8m81_61/w_82_512#
+ 018SRAM_cell1_cutPC_512x8m81_31/a_62_178# 018SRAM_cell1_cutPC_512x8m81_9/a_430_96#
+ 018SRAM_cell1_cutPC_512x8m81_9/a_110_96# VSUBS x018SRAM_cell1_cutPC_512x8m81
X018SRAM_cell1_cutPC_512x8m81_32 018SRAM_cell1_cutPC_512x8m81_32/m3_82_330# 018SRAM_cell1_cutPC_512x8m81_32/a_248_342#
+ 018SRAM_cell1_cutPC_512x8m81_32/a_248_592# 018SRAM_cell1_cutPC_512x8m81_32/w_82_512#
+ 018SRAM_cell1_cutPC_512x8m81_32/a_62_178# 018SRAM_cell1_cutPC_512x8m81_9/a_430_96#
+ 018SRAM_cell1_cutPC_512x8m81_9/a_110_96# VSUBS x018SRAM_cell1_cutPC_512x8m81
X018SRAM_cell1_cutPC_512x8m81_21 018SRAM_cell1_cutPC_512x8m81_21/m3_82_330# 018SRAM_cell1_cutPC_512x8m81_21/a_248_342#
+ 018SRAM_cell1_cutPC_512x8m81_41/a_248_592# 018SRAM_cell1_cutPC_512x8m81_41/w_82_512#
+ 018SRAM_cell1_cutPC_512x8m81_21/a_62_178# 018SRAM_cell1_cutPC_512x8m81_9/a_430_96#
+ 018SRAM_cell1_cutPC_512x8m81_9/a_110_96# VSUBS x018SRAM_cell1_cutPC_512x8m81
X018SRAM_cell1_cutPC_512x8m81_43 018SRAM_cell1_cutPC_512x8m81_43/m3_82_330# 018SRAM_cell1_cutPC_512x8m81_43/a_248_342#
+ 018SRAM_cell1_cutPC_512x8m81_43/a_248_592# 018SRAM_cell1_cutPC_512x8m81_43/w_82_512#
+ 018SRAM_cell1_cutPC_512x8m81_43/a_62_178# 018SRAM_cell1_cutPC_512x8m81_9/a_430_96#
+ 018SRAM_cell1_cutPC_512x8m81_9/a_110_96# VSUBS x018SRAM_cell1_cutPC_512x8m81
X018SRAM_cell1_cutPC_512x8m81_10 018SRAM_cell1_cutPC_512x8m81_10/m3_82_330# 018SRAM_cell1_cutPC_512x8m81_10/a_248_342#
+ 018SRAM_cell1_cutPC_512x8m81_53/a_248_592# 018SRAM_cell1_cutPC_512x8m81_53/w_82_512#
+ 018SRAM_cell1_cutPC_512x8m81_10/a_62_178# 018SRAM_cell1_cutPC_512x8m81_9/a_430_96#
+ 018SRAM_cell1_cutPC_512x8m81_9/a_110_96# VSUBS x018SRAM_cell1_cutPC_512x8m81
X018SRAM_cell1_cutPC_512x8m81_54 018SRAM_cell1_cutPC_512x8m81_54/m3_82_330# 018SRAM_cell1_cutPC_512x8m81_54/a_248_342#
+ 018SRAM_cell1_cutPC_512x8m81_9/a_248_592# 018SRAM_cell1_cutPC_512x8m81_9/w_82_512#
+ 018SRAM_cell1_cutPC_512x8m81_54/a_62_178# 018SRAM_cell1_cutPC_512x8m81_9/a_430_96#
+ 018SRAM_cell1_cutPC_512x8m81_9/a_110_96# VSUBS x018SRAM_cell1_cutPC_512x8m81
X018SRAM_cell1_cutPC_512x8m81_33 018SRAM_cell1_cutPC_512x8m81_33/m3_82_330# 018SRAM_cell1_cutPC_512x8m81_33/a_248_342#
+ 018SRAM_cell1_cutPC_512x8m81_33/a_248_592# 018SRAM_cell1_cutPC_512x8m81_33/w_82_512#
+ 018SRAM_cell1_cutPC_512x8m81_33/a_62_178# 018SRAM_cell1_cutPC_512x8m81_9/a_430_96#
+ 018SRAM_cell1_cutPC_512x8m81_9/a_110_96# VSUBS x018SRAM_cell1_cutPC_512x8m81
X018SRAM_cell1_cutPC_512x8m81_22 018SRAM_cell1_cutPC_512x8m81_22/m3_82_330# 018SRAM_cell1_cutPC_512x8m81_22/a_248_342#
+ 018SRAM_cell1_cutPC_512x8m81_40/a_248_592# 018SRAM_cell1_cutPC_512x8m81_40/w_82_512#
+ 018SRAM_cell1_cutPC_512x8m81_22/a_62_178# 018SRAM_cell1_cutPC_512x8m81_9/a_430_96#
+ 018SRAM_cell1_cutPC_512x8m81_9/a_110_96# VSUBS x018SRAM_cell1_cutPC_512x8m81
X018SRAM_cell1_cutPC_512x8m81_44 018SRAM_cell1_cutPC_512x8m81_44/m3_82_330# 018SRAM_cell1_cutPC_512x8m81_44/a_248_342#
+ 018SRAM_cell1_cutPC_512x8m81_44/a_248_592# 018SRAM_cell1_cutPC_512x8m81_44/w_82_512#
+ 018SRAM_cell1_cutPC_512x8m81_44/a_62_178# 018SRAM_cell1_cutPC_512x8m81_9/a_430_96#
+ 018SRAM_cell1_cutPC_512x8m81_9/a_110_96# VSUBS x018SRAM_cell1_cutPC_512x8m81
X018SRAM_cell1_cutPC_512x8m81_11 018SRAM_cell1_cutPC_512x8m81_11/m3_82_330# 018SRAM_cell1_cutPC_512x8m81_11/a_248_342#
+ 018SRAM_cell1_cutPC_512x8m81_52/a_248_592# 018SRAM_cell1_cutPC_512x8m81_52/w_82_512#
+ 018SRAM_cell1_cutPC_512x8m81_11/a_62_178# 018SRAM_cell1_cutPC_512x8m81_9/a_430_96#
+ 018SRAM_cell1_cutPC_512x8m81_9/a_110_96# VSUBS x018SRAM_cell1_cutPC_512x8m81
X018SRAM_cell1_cutPC_512x8m81_55 018SRAM_cell1_cutPC_512x8m81_55/m3_82_330# 018SRAM_cell1_cutPC_512x8m81_55/a_248_342#
+ 018SRAM_cell1_cutPC_512x8m81_8/a_248_592# 018SRAM_cell1_cutPC_512x8m81_8/w_82_512#
+ 018SRAM_cell1_cutPC_512x8m81_55/a_62_178# 018SRAM_cell1_cutPC_512x8m81_9/a_430_96#
+ 018SRAM_cell1_cutPC_512x8m81_9/a_110_96# VSUBS x018SRAM_cell1_cutPC_512x8m81
X018SRAM_cell1_cutPC_512x8m81_34 018SRAM_cell1_cutPC_512x8m81_34/m3_82_330# 018SRAM_cell1_cutPC_512x8m81_34/a_248_342#
+ 018SRAM_cell1_cutPC_512x8m81_34/a_248_592# 018SRAM_cell1_cutPC_512x8m81_34/w_82_512#
+ 018SRAM_cell1_cutPC_512x8m81_34/a_62_178# 018SRAM_cell1_cutPC_512x8m81_9/a_430_96#
+ 018SRAM_cell1_cutPC_512x8m81_9/a_110_96# VSUBS x018SRAM_cell1_cutPC_512x8m81
X018SRAM_cell1_cutPC_512x8m81_23 018SRAM_cell1_cutPC_512x8m81_23/m3_82_330# 018SRAM_cell1_cutPC_512x8m81_23/a_248_342#
+ 018SRAM_cell1_cutPC_512x8m81_39/a_248_592# 018SRAM_cell1_cutPC_512x8m81_39/w_82_512#
+ 018SRAM_cell1_cutPC_512x8m81_23/a_62_178# 018SRAM_cell1_cutPC_512x8m81_9/a_430_96#
+ 018SRAM_cell1_cutPC_512x8m81_9/a_110_96# VSUBS x018SRAM_cell1_cutPC_512x8m81
X018SRAM_cell1_cutPC_512x8m81_45 018SRAM_cell1_cutPC_512x8m81_45/m3_82_330# 018SRAM_cell1_cutPC_512x8m81_45/a_248_342#
+ 018SRAM_cell1_cutPC_512x8m81_45/a_248_592# 018SRAM_cell1_cutPC_512x8m81_45/w_82_512#
+ 018SRAM_cell1_cutPC_512x8m81_45/a_62_178# 018SRAM_cell1_cutPC_512x8m81_9/a_430_96#
+ 018SRAM_cell1_cutPC_512x8m81_9/a_110_96# VSUBS x018SRAM_cell1_cutPC_512x8m81
X018SRAM_cell1_cutPC_512x8m81_12 018SRAM_cell1_cutPC_512x8m81_12/m3_82_330# 018SRAM_cell1_cutPC_512x8m81_12/a_248_342#
+ 018SRAM_cell1_cutPC_512x8m81_51/a_248_592# 018SRAM_cell1_cutPC_512x8m81_51/w_82_512#
+ 018SRAM_cell1_cutPC_512x8m81_12/a_62_178# 018SRAM_cell1_cutPC_512x8m81_9/a_430_96#
+ 018SRAM_cell1_cutPC_512x8m81_9/a_110_96# VSUBS x018SRAM_cell1_cutPC_512x8m81
X018SRAM_cell1_cutPC_512x8m81_56 018SRAM_cell1_cutPC_512x8m81_56/m3_82_330# 018SRAM_cell1_cutPC_512x8m81_56/a_248_342#
+ 018SRAM_cell1_cutPC_512x8m81_7/a_248_592# 018SRAM_cell1_cutPC_512x8m81_7/w_82_512#
+ 018SRAM_cell1_cutPC_512x8m81_56/a_62_178# 018SRAM_cell1_cutPC_512x8m81_9/a_430_96#
+ 018SRAM_cell1_cutPC_512x8m81_9/a_110_96# VSUBS x018SRAM_cell1_cutPC_512x8m81
X018SRAM_cell1_cutPC_512x8m81_35 018SRAM_cell1_cutPC_512x8m81_35/m3_82_330# 018SRAM_cell1_cutPC_512x8m81_35/a_248_342#
+ 018SRAM_cell1_cutPC_512x8m81_35/a_248_592# 018SRAM_cell1_cutPC_512x8m81_35/w_82_512#
+ 018SRAM_cell1_cutPC_512x8m81_35/a_62_178# 018SRAM_cell1_cutPC_512x8m81_9/a_430_96#
+ 018SRAM_cell1_cutPC_512x8m81_9/a_110_96# VSUBS x018SRAM_cell1_cutPC_512x8m81
X018SRAM_cell1_cutPC_512x8m81_36 018SRAM_cell1_cutPC_512x8m81_36/m3_82_330# 018SRAM_cell1_cutPC_512x8m81_36/a_248_342#
+ 018SRAM_cell1_cutPC_512x8m81_36/a_248_592# 018SRAM_cell1_cutPC_512x8m81_36/w_82_512#
+ 018SRAM_cell1_cutPC_512x8m81_36/a_62_178# 018SRAM_cell1_cutPC_512x8m81_9/a_430_96#
+ 018SRAM_cell1_cutPC_512x8m81_9/a_110_96# VSUBS x018SRAM_cell1_cutPC_512x8m81
X018SRAM_cell1_cutPC_512x8m81_25 018SRAM_cell1_cutPC_512x8m81_25/m3_82_330# 018SRAM_cell1_cutPC_512x8m81_25/a_248_342#
+ 018SRAM_cell1_cutPC_512x8m81_37/a_248_592# 018SRAM_cell1_cutPC_512x8m81_37/w_82_512#
+ 018SRAM_cell1_cutPC_512x8m81_25/a_62_178# 018SRAM_cell1_cutPC_512x8m81_9/a_430_96#
+ 018SRAM_cell1_cutPC_512x8m81_9/a_110_96# VSUBS x018SRAM_cell1_cutPC_512x8m81
X018SRAM_cell1_cutPC_512x8m81_24 018SRAM_cell1_cutPC_512x8m81_24/m3_82_330# 018SRAM_cell1_cutPC_512x8m81_24/a_248_342#
+ 018SRAM_cell1_cutPC_512x8m81_38/a_248_592# 018SRAM_cell1_cutPC_512x8m81_38/w_82_512#
+ 018SRAM_cell1_cutPC_512x8m81_24/a_62_178# 018SRAM_cell1_cutPC_512x8m81_9/a_430_96#
+ 018SRAM_cell1_cutPC_512x8m81_9/a_110_96# VSUBS x018SRAM_cell1_cutPC_512x8m81
X018SRAM_cell1_cutPC_512x8m81_47 018SRAM_cell1_cutPC_512x8m81_47/m3_82_330# 018SRAM_cell1_cutPC_512x8m81_47/a_248_342#
+ 018SRAM_cell1_cutPC_512x8m81_47/a_248_592# 018SRAM_cell1_cutPC_512x8m81_47/w_82_512#
+ 018SRAM_cell1_cutPC_512x8m81_47/a_62_178# 018SRAM_cell1_cutPC_512x8m81_9/a_430_96#
+ 018SRAM_cell1_cutPC_512x8m81_9/a_110_96# VSUBS x018SRAM_cell1_cutPC_512x8m81
X018SRAM_cell1_cutPC_512x8m81_46 018SRAM_cell1_cutPC_512x8m81_46/m3_82_330# VSS VDD
+ 018SRAM_cell1_cutPC_512x8m81_0/w_82_512# 018SRAM_cell1_cutPC_512x8m81_46/a_62_178#
+ 018SRAM_cell1_cutPC_512x8m81_9/a_430_96# 018SRAM_cell1_cutPC_512x8m81_9/a_110_96#
+ VSUBS x018SRAM_cell1_cutPC_512x8m81
X018SRAM_cell1_cutPC_512x8m81_14 018SRAM_cell1_cutPC_512x8m81_14/m3_82_330# 018SRAM_cell1_cutPC_512x8m81_14/a_248_342#
+ 018SRAM_cell1_cutPC_512x8m81_49/a_248_592# 018SRAM_cell1_cutPC_512x8m81_49/w_82_512#
+ 018SRAM_cell1_cutPC_512x8m81_14/a_62_178# 018SRAM_cell1_cutPC_512x8m81_9/a_430_96#
+ 018SRAM_cell1_cutPC_512x8m81_9/a_110_96# VSUBS x018SRAM_cell1_cutPC_512x8m81
X018SRAM_cell1_cutPC_512x8m81_13 018SRAM_cell1_cutPC_512x8m81_13/m3_82_330# 018SRAM_cell1_cutPC_512x8m81_13/a_248_342#
+ 018SRAM_cell1_cutPC_512x8m81_50/a_248_592# 018SRAM_cell1_cutPC_512x8m81_50/w_82_512#
+ 018SRAM_cell1_cutPC_512x8m81_13/a_62_178# 018SRAM_cell1_cutPC_512x8m81_9/a_430_96#
+ 018SRAM_cell1_cutPC_512x8m81_9/a_110_96# VSUBS x018SRAM_cell1_cutPC_512x8m81
X018SRAM_cell1_cutPC_512x8m81_57 018SRAM_cell1_cutPC_512x8m81_57/m3_82_330# 018SRAM_cell1_cutPC_512x8m81_57/a_248_342#
+ 018SRAM_cell1_cutPC_512x8m81_6/a_248_592# 018SRAM_cell1_cutPC_512x8m81_6/w_82_512#
+ 018SRAM_cell1_cutPC_512x8m81_57/a_62_178# 018SRAM_cell1_cutPC_512x8m81_9/a_430_96#
+ 018SRAM_cell1_cutPC_512x8m81_9/a_110_96# VSUBS x018SRAM_cell1_cutPC_512x8m81
X018SRAM_cell1_cutPC_512x8m81_58 018SRAM_cell1_cutPC_512x8m81_58/m3_82_330# 018SRAM_cell1_cutPC_512x8m81_58/a_248_342#
+ 018SRAM_cell1_cutPC_512x8m81_5/a_248_592# 018SRAM_cell1_cutPC_512x8m81_5/w_82_512#
+ 018SRAM_cell1_cutPC_512x8m81_58/a_62_178# 018SRAM_cell1_cutPC_512x8m81_9/a_430_96#
+ 018SRAM_cell1_cutPC_512x8m81_9/a_110_96# VSUBS x018SRAM_cell1_cutPC_512x8m81
X018SRAM_cell1_cutPC_512x8m81_26 018SRAM_cell1_cutPC_512x8m81_26/m3_82_330# 018SRAM_cell1_cutPC_512x8m81_26/a_248_342#
+ 018SRAM_cell1_cutPC_512x8m81_36/a_248_592# 018SRAM_cell1_cutPC_512x8m81_36/w_82_512#
+ 018SRAM_cell1_cutPC_512x8m81_26/a_62_178# 018SRAM_cell1_cutPC_512x8m81_9/a_430_96#