** sch_path: /home/tim/projects/opencircuitdesign/WaferSpace/gf180mcu_ocd_ip_sram__sram64x8m8wm1/xschem/gf180mcu_ocd_ip_sram__sram64x8m8wm1.sch
.subckt gf180mcu_ocd_ip_sram__sram64x8m8wm1 VSS VDD A[5] A[4] A[3] A[2] A[1] A[0] CLK GWEN Q[7] Q[6] Q[5] Q[4] Q[3] Q[2] Q[1] Q[0]
+ WEN[7] WEN[6] WEN[5] WEN[4] WEN[3] WEN[2] WEN[1] WEN[0] D[7] D[6] D[5] D[4] D[3] D[2] D[1] D[0] CEN
*.PININFO Q[7:0]:O WEN[7:0]:I D[7:0]:I A[5:0]:I CLK:I GWEN:I VDD:B VSS:B CEN:I
x1 VDD VSS net2[7] net2[6] net2[5] net2[4] net2[3] net2[2] net2[1] net2[0] ypassl[7] ypassl[6] ypassl[5] ypassl[4] ypassl[3]
+ ypassl[2] ypassl[1] ypassl[0] D[3] D[2] D[1] D[0] Q[3] Q[2] Q[1] Q[0] men GWE IGWEN WEN[3] WEN[2] WEN[1] WEN[0] lcol4_64_3v64x8m81
x2 VDD VSS net1[7] net1[6] net1[5] net1[4] net1[3] net1[2] net1[1] net1[0] ypassr[7] ypassr[6] ypassr[5] ypassr[4] ypassr[3]
+ ypassr[2] ypassr[1] ypassr[0] D[7] D[6] D[5] D[4] Q[7] Q[6] Q[5] Q[4] men GWE IGWEN WEN[7] WEN[6] WEN[5] WEN[4] net3 tblhl
+ rcol4_64_3v64x8m81
x3 VSS VDD net5 net3 net4[7] net4[6] net4[5] net4[4] net4[3] net4[2] net4[1] net4[0] net2[7] net2[6] net2[5] net2[4] net2[3]
+ net2[2] net2[1] net2[0] VDD VDD VDD VDD net1[7] net1[6] net1[5] net1[4] net1[3] net1[2] net1[1] net1[0] men VDD VDD xdec64_3v64x8m81
* noconn #net5
x4 VSS VDD VSS VSS VSS VSS A[5] A[4] A[3] A[2] A[1] A[0] xc[3] xc[2] xc[1] xc[0] xb[3] xb[2] xb[1] xb[0] net4[7] net4[6] net4[5]
+ net4[4] net4[3] net4[2] net4[1] net4[0] CLK men IGWEN GWEN GWE ypassr[7] ypassr[6] ypassr[5] ypassr[4] ypassr[3] ypassr[2] ypassr[1]
+ ypassr[0] ypassl[7] ypassl[6] ypassl[5] ypassl[4] ypassl[3] ypassl[2] ypassl[1] ypassl[0] tblhl CEN control_3v64x8_3v64x8m81
* noconn xc[2]
* noconn xc[3]
* noconn xc[0]
* noconn xc[1]
.ends

* expanding   symbol:  lcol4_64_3v64x8m81.sym # of pins=10
** sym_path: /home/tim/projects/opencircuitdesign/WaferSpace/gf180mcu_ocd_ip_sram__sram64x8m8wm1/xschem/lcol4_64_3v64x8m81.sym
** sch_path: /home/tim/projects/opencircuitdesign/WaferSpace/gf180mcu_ocd_ip_sram__sram64x8m8wm1/xschem/lcol4_64_3v64x8m81.sch
.subckt lcol4_64_3v64x8m81 vdd vss wr[7] wr[6] wr[5] wr[4] wr[3] wr[2] wr[1] wr[0] ypass[7] ypass[6] ypass[5] ypass[4] ypass[3]
+ ypass[2] ypass[1] ypass[0] datain[3] datain[2] datain[1] datain[0] q[3] q[2] q[1] q[0] men GWE GWEN WEN[3] WEN[2] WEN[1] WEN[0]
*.PININFO wr[7:0]:I ypass[7:0]:I datain[3:0]:I men:I GWE:I GWEN:I WEN[3:0]:I q[3:0]:O vdd:B vss:B
x1 vdd vss wr[7] wr[6] wr[5] wr[4] wr[3] wr[2] wr[1] wr[0] WEN[3] WEN[2] WEN[1] WEN[0] ypass[7] ypass[6] ypass[5] ypass[4]
+ ypass[3] ypass[2] ypass[1] ypass[0] datain[3] datain[2] datain[1] datain[0] men GWE GWEN q[3] q[2] q[1] q[0] net1 col_64a_3v64x8m81
x2 vss vdd vss ldummy_3v64x4_3v64x8m81
x3[35] vdd vdd vss dcap_103_novia_3v64x8m81
x3[34] vdd vdd vss dcap_103_novia_3v64x8m81
x3[33] vdd vdd vss dcap_103_novia_3v64x8m81
x3[32] vdd vdd vss dcap_103_novia_3v64x8m81
x3[31] vdd vdd vss dcap_103_novia_3v64x8m81
x3[30] vdd vdd vss dcap_103_novia_3v64x8m81
x3[29] vdd vdd vss dcap_103_novia_3v64x8m81
x3[28] vdd vdd vss dcap_103_novia_3v64x8m81
x3[27] vdd vdd vss dcap_103_novia_3v64x8m81
x3[26] vdd vdd vss dcap_103_novia_3v64x8m81
x3[25] vdd vdd vss dcap_103_novia_3v64x8m81
x3[24] vdd vdd vss dcap_103_novia_3v64x8m81
x3[23] vdd vdd vss dcap_103_novia_3v64x8m81
x3[22] vdd vdd vss dcap_103_novia_3v64x8m81
x3[21] vdd vdd vss dcap_103_novia_3v64x8m81
x3[20] vdd vdd vss dcap_103_novia_3v64x8m81
x3[19] vdd vdd vss dcap_103_novia_3v64x8m81
x3[18] vdd vdd vss dcap_103_novia_3v64x8m81
x3[17] vdd vdd vss dcap_103_novia_3v64x8m81
x3[16] vdd vdd vss dcap_103_novia_3v64x8m81
x3[15] vdd vdd vss dcap_103_novia_3v64x8m81
x3[14] vdd vdd vss dcap_103_novia_3v64x8m81
x3[13] vdd vdd vss dcap_103_novia_3v64x8m81
x3[12] vdd vdd vss dcap_103_novia_3v64x8m81
x3[11] vdd vdd vss dcap_103_novia_3v64x8m81
x3[10] vdd vdd vss dcap_103_novia_3v64x8m81
x3[9] vdd vdd vss dcap_103_novia_3v64x8m81
x3[8] vdd vdd vss dcap_103_novia_3v64x8m81
x3[7] vdd vdd vss dcap_103_novia_3v64x8m81
x3[6] vdd vdd vss dcap_103_novia_3v64x8m81
x3[5] vdd vdd vss dcap_103_novia_3v64x8m81
x3[4] vdd vdd vss dcap_103_novia_3v64x8m81
x3[3] vdd vdd vss dcap_103_novia_3v64x8m81
x3[2] vdd vdd vss dcap_103_novia_3v64x8m81
x3[1] vdd vdd vss dcap_103_novia_3v64x8m81
x3[0] vdd vdd vss dcap_103_novia_3v64x8m81
* noconn #net1
.ends


* expanding   symbol:  rcol4_64_3v64x8m81.sym # of pins=12
** sym_path: /home/tim/projects/opencircuitdesign/WaferSpace/gf180mcu_ocd_ip_sram__sram64x8m8wm1/xschem/rcol4_64_3v64x8m81.sym
** sch_path: /home/tim/projects/opencircuitdesign/WaferSpace/gf180mcu_ocd_ip_sram__sram64x8m8wm1/xschem/rcol4_64_3v64x8m81.sch
.subckt rcol4_64_3v64x8m81 vdd vss wr[7] wr[6] wr[5] wr[4] wr[3] wr[2] wr[1] wr[0] ypass[7] ypass[6] ypass[5] ypass[4] ypass[3]
+ ypass[2] ypass[1] ypass[0] datain[3] datain[2] datain[1] datain[0] q[3] q[2] q[1] q[0] men GWE GWEN WEN[3] WEN[2] WEN[1] WEN[0] DRWL tblhl
*.PININFO wr[7:0]:I ypass[7:0]:I datain[3:0]:I men:I GWE:I GWEN:I WEN[3:0]:I q[3:0]:O vdd:B vss:B DRWL:I tblhl:O
x1 vdd vss wr[7] wr[6] wr[5] wr[4] wr[3] wr[2] wr[1] wr[0] WEN[3] WEN[2] WEN[1] WEN[0] ypass[7] ypass[6] ypass[5] ypass[4]
+ ypass[3] ypass[2] ypass[1] ypass[0] datain[3] datain[2] datain[1] datain[0] men GWE GWEN q[3] q[2] q[1] q[0] pcb col_64a_3v64x8m81
x3[35] vdd vdd vss dcap_103_novia_3v64x8m81
x3[34] vdd vdd vss dcap_103_novia_3v64x8m81
x3[33] vdd vdd vss dcap_103_novia_3v64x8m81
x3[32] vdd vdd vss dcap_103_novia_3v64x8m81
x3[31] vdd vdd vss dcap_103_novia_3v64x8m81
x3[30] vdd vdd vss dcap_103_novia_3v64x8m81
x3[29] vdd vdd vss dcap_103_novia_3v64x8m81
x3[28] vdd vdd vss dcap_103_novia_3v64x8m81
x3[27] vdd vdd vss dcap_103_novia_3v64x8m81
x3[26] vdd vdd vss dcap_103_novia_3v64x8m81
x3[25] vdd vdd vss dcap_103_novia_3v64x8m81
x3[24] vdd vdd vss dcap_103_novia_3v64x8m81
x3[23] vdd vdd vss dcap_103_novia_3v64x8m81
x3[22] vdd vdd vss dcap_103_novia_3v64x8m81
x3[21] vdd vdd vss dcap_103_novia_3v64x8m81
x3[20] vdd vdd vss dcap_103_novia_3v64x8m81
x3[19] vdd vdd vss dcap_103_novia_3v64x8m81
x3[18] vdd vdd vss dcap_103_novia_3v64x8m81
x3[17] vdd vdd vss dcap_103_novia_3v64x8m81
x3[16] vdd vdd vss dcap_103_novia_3v64x8m81
x3[15] vdd vdd vss dcap_103_novia_3v64x8m81
x3[14] vdd vdd vss dcap_103_novia_3v64x8m81
x3[13] vdd vdd vss dcap_103_novia_3v64x8m81
x3[12] vdd vdd vss dcap_103_novia_3v64x8m81
x3[11] vdd vdd vss dcap_103_novia_3v64x8m81
x3[10] vdd vdd vss dcap_103_novia_3v64x8m81
x3[9] vdd vdd vss dcap_103_novia_3v64x8m81
x3[8] vdd vdd vss dcap_103_novia_3v64x8m81
x3[7] vdd vdd vss dcap_103_novia_3v64x8m81
x3[6] vdd vdd vss dcap_103_novia_3v64x8m81
x3[5] vdd vdd vss dcap_103_novia_3v64x8m81
x3[4] vdd vdd vss dcap_103_novia_3v64x8m81
x3[3] vdd vdd vss dcap_103_novia_3v64x8m81
x3[2] vdd vdd vss dcap_103_novia_3v64x8m81
x3[1] vdd vdd vss dcap_103_novia_3v64x8m81
x3[0] vdd vdd vss dcap_103_novia_3v64x8m81
x2 vss vdd vss vss vss DRWL pcb tblhl rdummy_3v64x4_3v64x8m81
.ends


* expanding   symbol:  xdec64_3v64x8m81.sym # of pins=10
** sym_path: /home/tim/projects/opencircuitdesign/WaferSpace/gf180mcu_ocd_ip_sram__sram64x8m8wm1/xschem/xdec64_3v64x8m81.sym
** sch_path: /home/tim/projects/opencircuitdesign/WaferSpace/gf180mcu_ocd_ip_sram__sram64x8m8wm1/xschem/xdec64_3v64x8m81.sch
.subckt xdec64_3v64x8m81 vss vdd DLWL DRWL xa[7] xa[6] xa[5] xa[4] xa[3] xa[2] xa[1] xa[0] LWL[7] LWL[6] LWL[5] LWL[4] LWL[3]
+ LWL[2] LWL[1] LWL[0] xb[3] xb[2] xb[1] xb[0] RWL[7] RWL[6] RWL[5] RWL[4] RWL[3] RWL[2] RWL[1] RWL[0] men xc[1] xc[0]
*.PININFO xa[7:0]:I xc[1:0]:I men:I RWL[7:0]:O LWL[7:0]:O DLWL:O DRWL:O vss:B vdd:B xb[3:0]:I
x1 vdd vss xa[7] xa[6] xa[5] xa[4] xa[3] xa[2] xa[1] xa[0] xb[0] xc[0] men LWL[7] LWL[6] LWL[5] LWL[4] LWL[3] LWL[2] LWL[1] LWL[0]
+ RWL[7] RWL[6] RWL[5] RWL[4] RWL[3] RWL[2] RWL[1] RWL[0] xdec32_3v64x8m81
* noconn xc[1]
x2[8] vdd vdd vss pmoscap_R270_3v64x8m81
x2[7] vdd vdd vss pmoscap_R270_3v64x8m81
x2[6] vdd vdd vss pmoscap_R270_3v64x8m81
x2[5] vdd vdd vss pmoscap_R270_3v64x8m81
x2[4] vdd vdd vss pmoscap_R270_3v64x8m81
x2[3] vdd vdd vss pmoscap_R270_3v64x8m81
x2[2] vdd vdd vss pmoscap_R270_3v64x8m81
x2[1] vdd vdd vss pmoscap_R270_3v64x8m81
x2[0] vdd vdd vss pmoscap_R270_3v64x8m81
x2 vdd DLWL vss men DRWL ddec_3v64x8m81
* noconn xb[3]
* noconn xb[2]
* noconn xb[1]
.ends


* expanding   symbol:  control_3v64x8_3v64x8m81.sym # of pins=15
** sym_path: /home/tim/projects/opencircuitdesign/WaferSpace/gf180mcu_ocd_ip_sram__sram64x8m8wm1/xschem/control_3v64x8_3v64x8m81.sym
** sch_path: /home/tim/projects/opencircuitdesign/WaferSpace/gf180mcu_ocd_ip_sram__sram64x8m8wm1/xschem/control_3v64x8_3v64x8m81.sch
.subckt control_3v64x8_3v64x8m81 vss vdd A[9] A[8] A[7] A[6] A[5] A[4] A[3] A[2] A[1] A[0] xc[3] xc[2] xc[1] xc[0] xb[3] xb[2]
+ xb[1] xb[0] xa[7] xa[6] xa[5] xa[4] xa[3] xa[2] xa[1] xa[0] clk men IGWEN GWEN GWE RYS[7] RYS[6] RYS[5] RYS[4] RYS[3] RYS[2] RYS[1]
+ RYS[0] LYS[7] LYS[6] LYS[5] LYS[4] LYS[3] LYS[2] LYS[1] LYS[0] tblhl CEN
*.PININFO clk:I GWEN:I IGWEN:O GWE:O A[9:0]:I xc[3:0]:O xb[3:0]:O xa[7:0]:O men:O RYS[7:0]:O LYS[7:0]:O vss:B vdd:B tblhl:I CEN:I
x1 RYS[7] RYS[6] RYS[5] RYS[4] RYS[3] RYS[2] RYS[1] RYS[0] LYS[7] LYS[6] LYS[5] LYS[4] LYS[3] LYS[2] LYS[1] LYS[0] vdd clk men vss
+ A[2] A[1] A[0] ypredec1_3v64x8m81
x2 tblhl men CEN vdd clk vss GWEN IGWEN GWE gen_3v64x8_3v64x8m81
x3 vdd vss clk xc[3] xc[2] xc[1] xc[0] A[9] A[8] A[7] A[6] A[5] A[4] A[3] xb[3] xb[2] xb[1] xb[0] men xa[7] xa[6] xa[5] xa[4]
+ xa[3] xa[2] xa[1] xa[0] prexdec_top_3v64x8m81
.ends


* expanding   symbol:  col_64a_3v64x8m81.sym # of pins=11
** sym_path: /home/tim/projects/opencircuitdesign/WaferSpace/gf180mcu_ocd_ip_sram__sram64x8m8wm1/xschem/col_64a_3v64x8m81.sym
** sch_path: /home/tim/projects/opencircuitdesign/WaferSpace/gf180mcu_ocd_ip_sram__sram64x8m8wm1/xschem/col_64a_3v64x8m81.sch
.subckt col_64a_3v64x8m81 vdd vss WL[7] WL[6] WL[5] WL[4] WL[3] WL[2] WL[1] WL[0] WEN[3] WEN[2] WEN[1] WEN[0] ypass[7] ypass[6]
+ ypass[5] ypass[4] ypass[3] ypass[2] ypass[1] ypass[0] datain[3] datain[2] datain[1] datain[0] men GWE GWEN q[3] q[2] q[1] q[0] pcb
*.PININFO WL[7:0]:I vdd:B vss:B WEN[3:0]:I q[3:0]:O ypass[7:0]:I datain[3:0]:I men:I GWE:I GWEN:I pcb:O
x1 WL[7] WL[6] WL[5] WL[4] WL[3] WL[2] WL[1] WL[0] bl[31] bl[30] bl[29] bl[28] bl[27] bl[26] bl[25] bl[24] bl[23] bl[22] bl[21]
+ bl[20] bl[19] bl[18] bl[17] bl[16] bl[15] bl[14] bl[13] bl[12] bl[11] bl[10] bl[9] bl[8] bl[7] bl[6] bl[5] bl[4] bl[3] bl[2] bl[1] bl[0]
+ br[31] br[30] br[29] br[28] br[27] br[26] br[25] br[24] br[23] br[22] br[21] br[20] br[19] br[18] br[17] br[16] br[15] br[14] br[13]
+ br[12] br[11] br[10] br[9] br[8] br[7] br[6] br[5] br[4] br[3] br[2] br[1] br[0] vdd vss Cell_array8x8_3v64x8m81
x2 vdd vss bl[31] bl[30] bl[29] bl[28] bl[27] bl[26] bl[25] bl[24] br[31] br[30] br[29] br[28] br[27] br[26] br[25] br[24]
+ ypass[7] ypass[6] ypass[5] ypass[4] ypass[3] ypass[2] ypass[1] ypass[0] men datain[0] GWE q[0] GWEN WEN[0] net1 saout_m2_3v64x8m81
x4 vdd vss bl[15] bl[14] bl[13] bl[12] bl[11] bl[10] bl[9] bl[8] br[15] br[14] br[13] br[12] br[11] br[10] br[9] br[8] ypass[7]
+ ypass[6] ypass[5] ypass[4] ypass[3] ypass[2] ypass[1] ypass[0] men datain[2] GWE q[2] GWEN WEN[2] net2 saout_m2_3v64x8m81
* noconn #net1
* noconn #net3
* noconn #net2
x3 vdd vss bl[7] bl[6] bl[5] bl[4] bl[3] bl[2] bl[1] bl[0] br[7] br[6] br[5] br[4] br[3] br[2] br[1] br[0] ypass[7] ypass[6]
+ ypass[5] ypass[4] ypass[3] ypass[2] ypass[1] ypass[0] men datain[3] GWE q[3] GWEN WEN[3] pcb saout_m2_3v64x8m81
x5 vdd vss bl[23] bl[22] bl[21] bl[20] bl[19] bl[18] bl[17] bl[16] br[23] br[22] br[21] br[20] br[19] br[18] br[17] br[16]
+ ypass[7] ypass[6] ypass[5] ypass[4] ypass[3] ypass[2] ypass[1] ypass[0] men datain[1] GWE q[1] GWEN WEN[1] net3 saout_m2_3v64x8m81
.ends


* expanding   symbol:  ldummy_3v64x4_3v64x8m81.sym # of pins=3
** sym_path: /home/tim/projects/opencircuitdesign/WaferSpace/gf180mcu_ocd_ip_sram__sram64x8m8wm1/xschem/ldummy_3v64x4_3v64x8m81.sym
** sch_path: /home/tim/projects/opencircuitdesign/WaferSpace/gf180mcu_ocd_ip_sram__sram64x8m8wm1/xschem/ldummy_3v64x4_3v64x8m81.sch
.subckt ldummy_3v64x4_3v64x8m81 wrd vdd vss
*.PININFO wrd:I vdd:B vss:B
x1 dtr[31] dtr[30] dtr[29] dtr[28] dtr[27] dtr[26] dtr[25] dtr[24] dtr[23] dtr[22] dtr[21] dtr[20] dtr[19] dtr[18] dtr[17] dtr[16]
+ dtr[15] dtr[14] dtr[13] dtr[12] dtr[11] dtr[10] dtr[9] dtr[8] dtr[7] dtr[6] dtr[5] dtr[4] dtr[3] dtr[2] dtr[1] dtr[0] dtl[31] dtl[30]
+ dtl[29] dtl[28] dtl[27] dtl[26] dtl[25] dtl[24] dtl[23] dtl[22] dtl[21] dtl[20] dtl[19] dtl[18] dtl[17] dtl[16] dtl[15] dtl[14] dtl[13]
+ dtl[12] dtl[11] dtl[10] dtl[9] dtl[8] dtl[7] dtl[6] dtl[5] dtl[4] dtl[3] dtl[2] dtl[1] dtl[0] vdd vss wrd Cell_array32x1_3v64x8m81
x2 dbr[31] dbr[30] dbr[29] dbr[28] dbr[27] dbr[26] dbr[25] dbr[24] dbr[23] dbr[22] dbr[21] dbr[20] dbr[19] dbr[18] dbr[17] dbr[16]
+ dbr[15] dbr[14] dbr[13] dbr[12] dbr[11] dbr[10] dbr[9] dbr[8] dbr[7] dbr[6] dbr[5] dbr[4] dbr[3] dbr[2] dbr[1] dbr[0] dbl[31] dbl[30]
+ dbl[29] dbl[28] dbl[27] dbl[26] dbl[25] dbl[24] dbl[23] dbl[22] dbl[21] dbl[20] dbl[19] dbl[18] dbl[17] dbl[16] dbl[15] dbl[14] dbl[13]
+ dbl[12] dbl[11] dbl[10] dbl[9] dbl[8] dbl[7] dbl[6] dbl[5] dbl[4] dbl[3] dbl[2] dbl[1] dbl[0] vdd vss wrd Cell_array32x1_3v64x8m81
x3[9] vdd wrd net1 net2 vss x018SRAM_cell1_3v64x8m81
x3[8] vdd wrd net1 net2 vss x018SRAM_cell1_3v64x8m81
x3[7] vdd wrd net1 net2 vss x018SRAM_cell1_3v64x8m81
x3[6] vdd wrd net1 net2 vss x018SRAM_cell1_3v64x8m81
x3[5] vdd wrd net1 net2 vss x018SRAM_cell1_3v64x8m81
x3[4] vdd wrd net1 net2 vss x018SRAM_cell1_3v64x8m81
x3[3] vdd wrd net1 net2 vss x018SRAM_cell1_3v64x8m81
x3[2] vdd wrd net1 net2 vss x018SRAM_cell1_3v64x8m81
x3[1] vdd wrd net1 net2 vss x018SRAM_cell1_3v64x8m81
x3[0] vdd wrd net1 net2 vss x018SRAM_cell1_3v64x8m81
* noconn #net2
* noconn #net1
* noconn dtl[31]
* noconn dtl[30]
* noconn dtl[29]
* noconn dtl[28]
* noconn dtl[27]
* noconn dtl[26]
* noconn dtl[25]
* noconn dtl[24]
* noconn dtl[23]
* noconn dtl[22]
* noconn dtl[21]
* noconn dtl[20]
* noconn dtl[19]
* noconn dtl[18]
* noconn dtl[17]
* noconn dtl[16]
* noconn dtl[15]
* noconn dtl[14]
* noconn dtl[13]
* noconn dtl[12]
* noconn dtl[11]
* noconn dtl[10]
* noconn dtl[9]
* noconn dtl[8]
* noconn dtl[7]
* noconn dtl[6]
* noconn dtl[5]
* noconn dtl[4]
* noconn dtl[3]
* noconn dtl[2]
* noconn dtl[1]
* noconn dtl[0]
* noconn dtr[31]
* noconn dtr[30]
* noconn dtr[29]
* noconn dtr[28]
* noconn dtr[27]
* noconn dtr[26]
* noconn dtr[25]
* noconn dtr[24]
* noconn dtr[23]
* noconn dtr[22]
* noconn dtr[21]
* noconn dtr[20]
* noconn dtr[19]
* noconn dtr[18]
* noconn dtr[17]
* noconn dtr[16]
* noconn dtr[15]
* noconn dtr[14]
* noconn dtr[13]
* noconn dtr[12]
* noconn dtr[11]
* noconn dtr[10]
* noconn dtr[9]
* noconn dtr[8]
* noconn dtr[7]
* noconn dtr[6]
* noconn dtr[5]
* noconn dtr[4]
* noconn dtr[3]
* noconn dtr[2]
* noconn dtr[1]
* noconn dtr[0]
* noconn dbl[31]
* noconn dbl[30]
* noconn dbl[29]
* noconn dbl[28]
* noconn dbl[27]
* noconn dbl[26]
* noconn dbl[25]
* noconn dbl[24]
* noconn dbl[23]
* noconn dbl[22]
* noconn dbl[21]
* noconn dbl[20]
* noconn dbl[19]
* noconn dbl[18]
* noconn dbl[17]
* noconn dbl[16]
* noconn dbl[15]
* noconn dbl[14]
* noconn dbl[13]
* noconn dbl[12]
* noconn dbl[11]
* noconn dbl[10]
* noconn dbl[9]
* noconn dbl[8]
* noconn dbl[7]
* noconn dbl[6]
* noconn dbl[5]
* noconn dbl[4]
* noconn dbl[3]
* noconn dbl[2]
* noconn dbl[1]
* noconn dbl[0]
* noconn dbr[31]
* noconn dbr[30]
* noconn dbr[29]
* noconn dbr[28]
* noconn dbr[27]
* noconn dbr[26]
* noconn dbr[25]
* noconn dbr[24]
* noconn dbr[23]
* noconn dbr[22]
* noconn dbr[21]
* noconn dbr[20]
* noconn dbr[19]
* noconn dbr[18]
* noconn dbr[17]
* noconn dbr[16]
* noconn dbr[15]
* noconn dbr[14]
* noconn dbr[13]
* noconn dbr[12]
* noconn dbr[11]
* noconn dbr[10]
* noconn dbr[9]
* noconn dbr[8]
* noconn dbr[7]
* noconn dbr[6]
* noconn dbr[5]
* noconn dbr[4]
* noconn dbr[3]
* noconn dbr[2]
* noconn dbr[1]
* noconn dbr[0]
.ends


* expanding   symbol:  dcap_103_novia_3v64x8m81.sym # of pins=3
** sym_path: /home/tim/projects/opencircuitdesign/WaferSpace/gf180mcu_ocd_ip_sram__sram64x8m8wm1/xschem/dcap_103_novia_3v64x8m81.sym
** sch_path: /home/tim/projects/opencircuitdesign/WaferSpace/gf180mcu_ocd_ip_sram__sram64x8m8wm1/xschem/dcap_103_novia_3v64x8m81.sch
.subckt dcap_103_novia_3v64x8m81 bottom bulk top
*.PININFO top:I bottom:B bulk:B
XM1 bottom top bottom bulk pfet_03v3 L=1.74u W=1.06u nf=1 ad='int((nf+1)/2) * W/nf * 0.18u' as='int((nf+2)/2) * W/nf * 0.18u' pd='2*int((nf+1)/2) * (W/nf + 0.18u)'
+ ps='2*int((nf+2)/2) * (W/nf + 0.18u)' nrd='0.18u / W' nrs='0.18u / W' sa=0 sb=0 sd=0 m=1
.ends


* expanding   symbol:  rdummy_3v64x4_3v64x8m81.sym # of pins=8
** sym_path: /home/tim/projects/opencircuitdesign/WaferSpace/gf180mcu_ocd_ip_sram__sram64x8m8wm1/xschem/rdummy_3v64x4_3v64x8m81.sym
** sch_path: /home/tim/projects/opencircuitdesign/WaferSpace/gf180mcu_ocd_ip_sram__sram64x8m8wm1/xschem/rdummy_3v64x4_3v64x8m81.sch
.subckt rdummy_3v64x4_3v64x8m81 wrdr vdd vss wrdl wrdb wrdt pcb tblhl
*.PININFO wrdl:I vdd:B vss:B wrdb:I wrdt:I wrdr:I pcb:I tblhl:O
x1 dtr[31] dtr[30] dtr[29] dtr[28] dtr[27] dtr[26] dtr[25] dtr[24] dtr[23] dtr[22] dtr[21] dtr[20] dtr[19] dtr[18] dtr[17] dtr[16]
+ dtr[15] dtr[14] dtr[13] dtr[12] dtr[11] dtr[10] dtr[9] dtr[8] dtr[7] dtr[6] dtr[5] dtr[4] dtr[3] dtr[2] dtr[1] dtr[0] dtl[31] dtl[30]
+ dtl[29] dtl[28] dtl[27] dtl[26] dtl[25] dtl[24] dtl[23] dtl[22] dtl[21] dtl[20] dtl[19] dtl[18] dtl[17] dtl[16] dtl[15] dtl[14] dtl[13]
+ dtl[12] dtl[11] dtl[10] dtl[9] dtl[8] dtl[7] dtl[6] dtl[5] dtl[4] dtl[3] dtl[2] dtl[1] dtl[0] vdd vss wrdb Cell_array32x1_3v64x8m81
x2 dbr[31] dbr[30] dbr[29] dbr[28] dbr[27] dbr[26] dbr[25] dbr[24] dbr[23] dbr[22] dbr[21] dbr[20] dbr[19] dbr[18] dbr[17] dbr[16]
+ dbr[15] dbr[14] dbr[13] dbr[12] dbr[11] dbr[10] dbr[9] dbr[8] dbr[7] dbr[6] dbr[5] dbr[4] dbr[3] dbr[2] dbr[1] dbr[0] dbl[31] dbl[30]
+ dbl[29] dbl[28] dbl[27] dbl[26] dbl[25] dbl[24] dbl[23] dbl[22] dbl[21] dbl[20] dbl[19] dbl[18] dbl[17] dbl[16] dbl[15] dbl[14] dbl[13]
+ dbl[12] dbl[11] dbl[10] dbl[9] dbl[8] dbl[7] dbl[6] dbl[5] dbl[4] dbl[3] dbl[2] dbl[1] dbl[0] vdd vss wrdt Cell_array32x1_3v64x8m81
x3[8] vdd wrdl net1 net2 vss x018SRAM_cell1_3v64x8m81
x3[7] vdd wrdl net1 net2 vss x018SRAM_cell1_3v64x8m81
x3[6] vdd wrdl net1 net2 vss x018SRAM_cell1_3v64x8m81
x3[5] vdd wrdl net1 net2 vss x018SRAM_cell1_3v64x8m81
x3[4] vdd wrdl net1 net2 vss x018SRAM_cell1_3v64x8m81
x3[3] vdd wrdl net1 net2 vss x018SRAM_cell1_3v64x8m81
x3[2] vdd wrdl net1 net2 vss x018SRAM_cell1_3v64x8m81
x3[1] vdd wrdl net1 net2 vss x018SRAM_cell1_3v64x8m81
x3[0] vdd wrdl net1 net2 vss x018SRAM_cell1_3v64x8m81
x4[6] vdd wrdr b bb vss x018SRAM_cell1_dummy_R_3v64x8m81
x4[5] vdd wrdr b bb vss x018SRAM_cell1_dummy_R_3v64x8m81
x4[4] vdd wrdr b bb vss x018SRAM_cell1_dummy_R_3v64x8m81
x4[3] vdd wrdr b bb vss x018SRAM_cell1_dummy_R_3v64x8m81
x4[2] vdd wrdr b bb vss x018SRAM_cell1_dummy_R_3v64x8m81
x4[1] vdd wrdr b bb vss x018SRAM_cell1_dummy_R_3v64x8m81
x4[0] vdd wrdr b bb vss x018SRAM_cell1_dummy_R_3v64x8m81
x6[2] vdd wrdt b bb vss x018SRAM_cell1_dummy_R_3v64x8m81
x6[1] vdd wrdt b bb vss x018SRAM_cell1_dummy_R_3v64x8m81
x6[0] vdd wrdt b bb vss x018SRAM_cell1_dummy_R_3v64x8m81
x5 vdd wrdb net1 net2 vss x018SRAM_cell1_3v64x8m81
XM1 b pcb vdd vdd pfet_03v3 L=0.28u W=3.19u nf=2 ad='int((nf+1)/2) * W/nf * 0.18u' as='int((nf+2)/2) * W/nf * 0.18u' pd='2*int((nf+1)/2) * (W/nf + 0.18u)'
+ ps='2*int((nf+2)/2) * (W/nf + 0.18u)' nrd='0.18u / W' nrs='0.18u / W' sa=0 sb=0 sd=0 m=1
XM2 bb pcb vdd vdd pfet_03v3 L=0.28u W=3.19u nf=2 ad='int((nf+1)/2) * W/nf * 0.18u' as='int((nf+2)/2) * W/nf * 0.18u' pd='2*int((nf+1)/2) * (W/nf + 0.18u)'
+ ps='2*int((nf+2)/2) * (W/nf + 0.18u)' nrd='0.18u / W' nrs='0.18u / W' sa=0 sb=0 sd=0 m=1
XM3 bb pcb b vdd pfet_03v3 L=0.28u W=3.175u nf=1 ad='int((nf+1)/2) * W/nf * 0.18u' as='int((nf+2)/2) * W/nf * 0.18u' pd='2*int((nf+1)/2) * (W/nf + 0.18u)'
+ ps='2*int((nf+2)/2) * (W/nf + 0.18u)' nrd='0.18u / W' nrs='0.18u / W' sa=0 sb=0 sd=0 m=1
XM4 bb net3 bb vdd pfet_03v3 L=0.28u W=3.175u nf=1 ad='int((nf+1)/2) * W/nf * 0.18u' as='int((nf+2)/2) * W/nf * 0.18u' pd='2*int((nf+1)/2) * (W/nf + 0.18u)'
+ ps='2*int((nf+2)/2) * (W/nf + 0.18u)' nrd='0.18u / W' nrs='0.18u / W' sa=0 sb=0 sd=0 m=1
XM5 b net3 b vdd pfet_03v3 L=0.28u W=3.175u nf=1 ad='int((nf+1)/2) * W/nf * 0.18u' as='int((nf+2)/2) * W/nf * 0.18u' pd='2*int((nf+1)/2) * (W/nf + 0.18u)'
+ ps='2*int((nf+2)/2) * (W/nf + 0.18u)' nrd='0.18u / W' nrs='0.18u / W' sa=0 sb=0 sd=0 m=1
XM6 bb vdd bb vss nfet_03v3 L=0.28u W=3.175u nf=1 ad='int((nf+1)/2) * W/nf * 0.18u' as='int((nf+2)/2) * W/nf * 0.18u' pd='2*int((nf+1)/2) * (W/nf + 0.18u)'
+ ps='2*int((nf+2)/2) * (W/nf + 0.18u)' nrd='0.18u / W' nrs='0.18u / W' sa=0 sb=0 sd=0 m=1
XM7 b vdd b vss nfet_03v3 L=0.28u W=3.175u nf=1 ad='int((nf+1)/2) * W/nf * 0.18u' as='int((nf+2)/2) * W/nf * 0.18u' pd='2*int((nf+1)/2) * (W/nf + 0.18u)'
+ ps='2*int((nf+2)/2) * (W/nf + 0.18u)' nrd='0.18u / W' nrs='0.18u / W' sa=0 sb=0 sd=0 m=1
XM8 vdd vdd net3 vdd pfet_03v3 L=0.28u W=1.39u nf=2 ad='int((nf+1)/2) * W/nf * 0.18u' as='int((nf+2)/2) * W/nf * 0.18u' pd='2*int((nf+1)/2) * (W/nf + 0.18u)'
+ ps='2*int((nf+2)/2) * (W/nf + 0.18u)' nrd='0.18u / W' nrs='0.18u / W' sa=0 sb=0 sd=0 m=1
XM9 net3 vdd vss vss nfet_03v3 L=0.28u W=0.53u nf=2 ad='int((nf+1)/2) * W/nf * 0.18u' as='int((nf+2)/2) * W/nf * 0.18u' pd='2*int((nf+1)/2) * (W/nf + 0.18u)'
+ ps='2*int((nf+2)/2) * (W/nf + 0.18u)' nrd='0.18u / W' nrs='0.18u / W' sa=0 sb=0 sd=0 m=1
* noconn bb
XM10 vdd b net4 vdd pfet_03v3 L=0.28u W=3.27u nf=2 ad='int((nf+1)/2) * W/nf * 0.18u' as='int((nf+2)/2) * W/nf * 0.18u' pd='2*int((nf+1)/2) * (W/nf + 0.18u)'
+ ps='2*int((nf+2)/2) * (W/nf + 0.18u)' nrd='0.18u / W' nrs='0.18u / W' sa=0 sb=0 sd=0 m=1
XM11 net4 b vss vss nfet_03v3 L=0.28u W=1.28u nf=2 ad='int((nf+1)/2) * W/nf * 0.18u' as='int((nf+2)/2) * W/nf * 0.18u' pd='2*int((nf+1)/2) * (W/nf + 0.18u)'
+ ps='2*int((nf+2)/2) * (W/nf + 0.18u)' nrd='0.18u / W' nrs='0.18u / W' sa=0 sb=0 sd=0 m=1
XM12 vdd net4 tblhl vdd pfet_03v3 L=0.28u W=9.93u nf=2 ad='int((nf+1)/2) * W/nf * 0.18u' as='int((nf+2)/2) * W/nf * 0.18u' pd='2*int((nf+1)/2) * (W/nf + 0.18u)'
+ ps='2*int((nf+2)/2) * (W/nf + 0.18u)' nrd='0.18u / W' nrs='0.18u / W' sa=0 sb=0 sd=0 m=1
XM13 tblhl net4 vss vss nfet_03v3 L=0.28u W=7.93u nf=2 ad='int((nf+1)/2) * W/nf * 0.18u' as='int((nf+2)/2) * W/nf * 0.18u' pd='2*int((nf+1)/2) * (W/nf + 0.18u)'
+ ps='2*int((nf+2)/2) * (W/nf + 0.18u)' nrd='0.18u / W' nrs='0.18u / W' sa=0 sb=0 sd=0 m=1
* noconn dtl[31]
* noconn dtl[30]
* noconn dtl[29]
* noconn dtl[28]
* noconn dtl[27]
* noconn dtl[26]
* noconn dtl[25]
* noconn dtl[24]
* noconn dtl[23]
* noconn dtl[22]
* noconn dtl[21]
* noconn dtl[20]
* noconn dtl[19]
* noconn dtl[18]
* noconn dtl[17]
* noconn dtl[16]
* noconn dtl[15]
* noconn dtl[14]
* noconn dtl[13]
* noconn dtl[12]
* noconn dtl[11]
* noconn dtl[10]
* noconn dtl[9]
* noconn dtl[8]
* noconn dtl[7]
* noconn dtl[6]
* noconn dtl[5]
* noconn dtl[4]
* noconn dtl[3]
* noconn dtl[2]
* noconn dtl[1]
* noconn dtl[0]
* noconn dtr[31]
* noconn dtr[30]
* noconn dtr[29]
* noconn dtr[28]
* noconn dtr[27]
* noconn dtr[26]
* noconn dtr[25]
* noconn dtr[24]
* noconn dtr[23]
* noconn dtr[22]
* noconn dtr[21]
* noconn dtr[20]
* noconn dtr[19]
* noconn dtr[18]
* noconn dtr[17]
* noconn dtr[16]
* noconn dtr[15]
* noconn dtr[14]
* noconn dtr[13]
* noconn dtr[12]
* noconn dtr[11]
* noconn dtr[10]
* noconn dtr[9]
* noconn dtr[8]
* noconn dtr[7]
* noconn dtr[6]
* noconn dtr[5]
* noconn dtr[4]
* noconn dtr[3]
* noconn dtr[2]
* noconn dtr[1]
* noconn dtr[0]
* noconn dbl[31]
* noconn dbl[30]
* noconn dbl[29]
* noconn dbl[28]
* noconn dbl[27]
* noconn dbl[26]
* noconn dbl[25]
* noconn dbl[24]
* noconn dbl[23]
* noconn dbl[22]
* noconn dbl[21]
* noconn dbl[20]
* noconn dbl[19]
* noconn dbl[18]
* noconn dbl[17]
* noconn dbl[16]
* noconn dbl[15]
* noconn dbl[14]
* noconn dbl[13]
* noconn dbl[12]
* noconn dbl[11]
* noconn dbl[10]
* noconn dbl[9]
* noconn dbl[8]
* noconn dbl[7]
* noconn dbl[6]
* noconn dbl[5]
* noconn dbl[4]
* noconn dbl[3]
* noconn dbl[2]
* noconn dbl[1]
* noconn dbl[0]
* noconn dbr[31]
* noconn dbr[30]
* noconn dbr[29]
* noconn dbr[28]
* noconn dbr[27]
* noconn dbr[26]
* noconn dbr[25]
* noconn dbr[24]
* noconn dbr[23]
* noconn dbr[22]
* noconn dbr[21]
* noconn dbr[20]
* noconn dbr[19]
* noconn dbr[18]
* noconn dbr[17]
* noconn dbr[16]
* noconn dbr[15]
* noconn dbr[14]
* noconn dbr[13]
* noconn dbr[12]
* noconn dbr[11]
* noconn dbr[10]
* noconn dbr[9]
* noconn dbr[8]
* noconn dbr[7]
* noconn dbr[6]
* noconn dbr[5]
* noconn dbr[4]
* noconn dbr[3]
* noconn dbr[2]
* noconn dbr[1]
* noconn dbr[0]
.ends


* expanding   symbol:  xdec32_3v64x8m81.sym # of pins=8
** sym_path: /home/tim/projects/opencircuitdesign/WaferSpace/gf180mcu_ocd_ip_sram__sram64x8m8wm1/xschem/xdec32_3v64x8m81.sym
** sch_path: /home/tim/projects/opencircuitdesign/WaferSpace/gf180mcu_ocd_ip_sram__sram64x8m8wm1/xschem/xdec32_3v64x8m81.sch
.subckt xdec32_3v64x8m81 vdd vss xa[7] xa[6] xa[5] xa[4] xa[3] xa[2] xa[1] xa[0] xb xc men LWL[7] LWL[6] LWL[5] LWL[4] LWL[3]
+ LWL[2] LWL[1] LWL[0] RWL[7] RWL[6] RWL[5] RWL[4] RWL[3] RWL[2] RWL[1] RWL[0]
*.PININFO xa[7:0]:I xb:I xc:I vdd:B vss:B RWL[7:0]:O LWL[7:0]:O men:I
x1 vdd LWL[0] xa[0] men xb RWL[0] xc vss xdec_3v64x8m81
x2 vdd LWL[1] xa[1] men xb RWL[1] xc vss xdec_3v64x8m81
x3 vdd LWL[2] xa[2] men xb RWL[2] xc vss xdec_3v64x8m81
x4 vdd LWL[3] xa[3] men xb RWL[3] xc vss xdec_3v64x8m81
x5 vdd LWL[4] xa[4] men xb RWL[4] xc vss xdec_3v64x8m81
x6 vdd LWL[5] xa[5] men xb RWL[5] xc vss xdec_3v64x8m81
x7 vdd LWL[6] xa[6] men xb RWL[6] xc vss xdec_3v64x8m81
x8 vdd LWL[7] xa[7] men xb RWL[7] xc vss xdec_3v64x8m81
.ends


* expanding   symbol:  pmoscap_R270_3v64x8m81.sym # of pins=3
** sym_path: /home/tim/projects/opencircuitdesign/WaferSpace/gf180mcu_ocd_ip_sram__sram64x8m8wm1/xschem/pmoscap_R270_3v64x8m81.sym
** sch_path: /home/tim/projects/opencircuitdesign/WaferSpace/gf180mcu_ocd_ip_sram__sram64x8m8wm1/xschem/pmoscap_R270_3v64x8m81.sch
.subckt pmoscap_R270_3v64x8m81 bottom bulk top
*.PININFO top:I bottom:B bulk:B
XM1 bottom top bottom bulk pfet_03v3 L=2.505u W=2.565u nf=1 ad='int((nf+1)/2) * W/nf * 0.18u' as='int((nf+2)/2) * W/nf * 0.18u' pd='2*int((nf+1)/2) * (W/nf + 0.18u)'
+ ps='2*int((nf+2)/2) * (W/nf + 0.18u)' nrd='0.18u / W' nrs='0.18u / W' sa=0 sb=0 sd=0 m=2
.ends


* expanding   symbol:  ddec_3v64x8m81.sym # of pins=5
** sym_path: /home/tim/projects/opencircuitdesign/WaferSpace/gf180mcu_ocd_ip_sram__sram64x8m8wm1/xschem/ddec_3v64x8m81.sym
** sch_path: /home/tim/projects/opencircuitdesign/WaferSpace/gf180mcu_ocd_ip_sram__sram64x8m8wm1/xschem/ddec_3v64x8m81.sch
.subckt ddec_3v64x8m81 vdd DLWL vss men DRWL
*.PININFO DLWL:O DRWL:O men:I vdd:B vss:B
XM1 DLWL net1 vdd vdd pfet_03v3 L=0.28u W=11.78u nf=2 ad='int((nf+1)/2) * W/nf * 0.18u' as='int((nf+2)/2) * W/nf * 0.18u' pd='2*int((nf+1)/2) * (W/nf + 0.18u)'
+ ps='2*int((nf+2)/2) * (W/nf + 0.18u)' nrd='0.18u / W' nrs='0.18u / W' sa=0 sb=0 sd=0 m=1
XM2 DLWL net1 vss vss nfet_03v3 L=0.28u W=4.715u nf=1 ad='int((nf+1)/2) * W/nf * 0.18u' as='int((nf+2)/2) * W/nf * 0.18u' pd='2*int((nf+1)/2) * (W/nf + 0.18u)'
+ ps='2*int((nf+2)/2) * (W/nf + 0.18u)' nrd='0.18u / W' nrs='0.18u / W' sa=0 sb=0 sd=0 m=1
XM3 net1 net2 vdd vdd pfet_03v3 L=0.28u W=3.075u nf=1 ad='int((nf+1)/2) * W/nf * 0.18u' as='int((nf+2)/2) * W/nf * 0.18u' pd='2*int((nf+1)/2) * (W/nf + 0.18u)'
+ ps='2*int((nf+2)/2) * (W/nf + 0.18u)' nrd='0.18u / W' nrs='0.18u / W' sa=0 sb=0 sd=0 m=1
XM4 net1 net2 vss vss nfet_03v3 L=0.28u W=1.23u nf=1 ad='int((nf+1)/2) * W/nf * 0.18u' as='int((nf+2)/2) * W/nf * 0.18u' pd='2*int((nf+1)/2) * (W/nf + 0.18u)'
+ ps='2*int((nf+2)/2) * (W/nf + 0.18u)' nrd='0.18u / W' nrs='0.18u / W' sa=0 sb=0 sd=0 m=1
XM5 DRWL net3 vdd vdd pfet_03v3 L=0.28u W=11.78u nf=2 ad='int((nf+1)/2) * W/nf * 0.18u' as='int((nf+2)/2) * W/nf * 0.18u' pd='2*int((nf+1)/2) * (W/nf + 0.18u)'
+ ps='2*int((nf+2)/2) * (W/nf + 0.18u)' nrd='0.18u / W' nrs='0.18u / W' sa=0 sb=0 sd=0 m=1
XM6 DRWL net3 vss vss nfet_03v3 L=0.28u W=4.715u nf=1 ad='int((nf+1)/2) * W/nf * 0.18u' as='int((nf+2)/2) * W/nf * 0.18u' pd='2*int((nf+1)/2) * (W/nf + 0.18u)'
+ ps='2*int((nf+2)/2) * (W/nf + 0.18u)' nrd='0.18u / W' nrs='0.18u / W' sa=0 sb=0 sd=0 m=1
XM7 net3 net2 vdd vdd pfet_03v3 L=0.28u W=3.075u nf=1 ad='int((nf+1)/2) * W/nf * 0.18u' as='int((nf+2)/2) * W/nf * 0.18u' pd='2*int((nf+1)/2) * (W/nf + 0.18u)'
+ ps='2*int((nf+2)/2) * (W/nf + 0.18u)' nrd='0.18u / W' nrs='0.18u / W' sa=0 sb=0 sd=0 m=1
XM8 net3 net2 vss vss nfet_03v3 L=0.28u W=1.23u nf=1 ad='int((nf+1)/2) * W/nf * 0.18u' as='int((nf+2)/2) * W/nf * 0.18u' pd='2*int((nf+1)/2) * (W/nf + 0.18u)'
+ ps='2*int((nf+2)/2) * (W/nf + 0.18u)' nrd='0.18u / W' nrs='0.18u / W' sa=0 sb=0 sd=0 m=1
XM9 men vss net2 vdd pfet_03v3 L=0.28u W=3.075u nf=1 ad='int((nf+1)/2) * W/nf * 0.18u' as='int((nf+2)/2) * W/nf * 0.18u' pd='2*int((nf+1)/2) * (W/nf + 0.18u)'
+ ps='2*int((nf+2)/2) * (W/nf + 0.18u)' nrd='0.18u / W' nrs='0.18u / W' sa=0 sb=0 sd=0 m=1
XM10 men vdd net2 vss nfet_03v3 L=0.28u W=3.075u nf=1 ad='int((nf+1)/2) * W/nf * 0.18u' as='int((nf+2)/2) * W/nf * 0.18u' pd='2*int((nf+1)/2) * (W/nf + 0.18u)'
+ ps='2*int((nf+2)/2) * (W/nf + 0.18u)' nrd='0.18u / W' nrs='0.18u / W' sa=0 sb=0 sd=0 m=1
.ends


* expanding   symbol:  ypredec1_3v64x8m81.sym # of pins=7
** sym_path: /home/tim/projects/opencircuitdesign/WaferSpace/gf180mcu_ocd_ip_sram__sram64x8m8wm1/xschem/ypredec1_3v64x8m81.sym
** sch_path: /home/tim/projects/opencircuitdesign/WaferSpace/gf180mcu_ocd_ip_sram__sram64x8m8wm1/xschem/ypredec1_3v64x8m81.sch
.subckt ypredec1_3v64x8m81 ry[7] ry[6] ry[5] ry[4] ry[3] ry[2] ry[1] ry[0] ly[7] ly[6] ly[5] ly[4] ly[3] ly[2] ly[1] ly[0] vdd clk
+ men vss A[2] A[1] A[0]
*.PININFO A[2:0]:I clk:I men:I ly[7:0]:O vdd:B vss:B ry[7:0]:O
x1 vdd x[4] ly[4] vss ypredec1_ys_3v64x8m81
x2 vdd x[5] ly[5] vss ypredec1_ys_3v64x8m81
x3 vdd x[6] ly[6] vss ypredec1_ys_3v64x8m81
x4 vdd x[7] ly[7] vss ypredec1_ys_3v64x8m81
x5 vdd x[3] ly[3] vss ypredec1_ys_3v64x8m81
x6 vdd x[2] ly[2] vss ypredec1_ys_3v64x8m81
x7 vdd x[1] ly[1] vss ypredec1_ys_3v64x8m81