* NGSPICE file created from gf180mcu_ocd_ip_sram__sram64x8m8wm1.ext - technology: gf180mcuD

.subckt nmos_5p04310591302056_3v64x8m81 D a_0_n44# S VSUBS
X0 D a_0_n44# S VSUBS nfet_03v3 ad=0.3916p pd=2.66u as=0.3916p ps=2.66u w=0.89u l=0.28u
.ends

.subckt nmos_5p04310591302054_3v64x8m81 D a_0_n44# S VSUBS
X0 D a_0_n44# S VSUBS nfet_03v3 ad=1.8634p pd=9.35u as=1.8634p ps=9.35u w=4.235u l=0.28u
.ends

.subckt pmos_5p04310591302055_3v64x8m81 D a_0_n44# w_n174_n86# S
X0 D a_0_n44# S w_n174_n86# pfet_03v3 ad=4.1052p pd=19.54u as=4.1052p ps=19.54u w=9.33u l=0.28u
.ends

.subckt ypredec1_ys_3v64x8m81 nmos_5p04310591302054_3v64x8m81_3/D a_187_1127# pmos_5p04310591302055_3v64x8m81_3/S
+ VSUBS pmos_5p04310591302055_3v64x8m81_3/D
Xnmos_5p04310591302054_3v64x8m81_0 pmos_5p04310591302055_3v64x8m81_3/S pmos_5p04310591302055_3v64x8m81_0/D
+ nmos_5p04310591302054_3v64x8m81_3/D VSUBS nmos_5p04310591302054_3v64x8m81
Xnmos_5p04310591302054_3v64x8m81_1 nmos_5p04310591302054_3v64x8m81_3/D pmos_5p04310591302055_3v64x8m81_0/D
+ pmos_5p04310591302055_3v64x8m81_3/S VSUBS nmos_5p04310591302054_3v64x8m81
Xnmos_5p04310591302054_3v64x8m81_2 pmos_5p04310591302055_3v64x8m81_0/D a_187_1127#
+ nmos_5p04310591302054_3v64x8m81_3/D VSUBS nmos_5p04310591302054_3v64x8m81
Xnmos_5p04310591302054_3v64x8m81_3 nmos_5p04310591302054_3v64x8m81_3/D pmos_5p04310591302055_3v64x8m81_0/D
+ pmos_5p04310591302055_3v64x8m81_3/S VSUBS nmos_5p04310591302054_3v64x8m81
Xpmos_5p04310591302055_3v64x8m81_0 pmos_5p04310591302055_3v64x8m81_0/D a_187_1127#
+ pmos_5p04310591302055_3v64x8m81_3/D pmos_5p04310591302055_3v64x8m81_3/D pmos_5p04310591302055_3v64x8m81
Xpmos_5p04310591302055_3v64x8m81_1 pmos_5p04310591302055_3v64x8m81_3/D pmos_5p04310591302055_3v64x8m81_0/D
+ pmos_5p04310591302055_3v64x8m81_3/D pmos_5p04310591302055_3v64x8m81_3/S pmos_5p04310591302055_3v64x8m81
Xpmos_5p04310591302055_3v64x8m81_2 pmos_5p04310591302055_3v64x8m81_3/S pmos_5p04310591302055_3v64x8m81_0/D
+ pmos_5p04310591302055_3v64x8m81_3/D pmos_5p04310591302055_3v64x8m81_3/D pmos_5p04310591302055_3v64x8m81
Xpmos_5p04310591302055_3v64x8m81_3 pmos_5p04310591302055_3v64x8m81_3/D pmos_5p04310591302055_3v64x8m81_0/D
+ pmos_5p04310591302055_3v64x8m81_3/D pmos_5p04310591302055_3v64x8m81_3/S pmos_5p04310591302055_3v64x8m81
.ends

.subckt pmos_5p04310591302061_3v64x8m81 D a_0_n44# w_n174_n86# S
X0 D a_0_n44# S w_n174_n86# pfet_03v3 ad=1.1836p pd=6.26u as=1.1836p ps=6.26u w=2.69u l=0.28u
.ends

.subckt pmos_1p2$$47820844_3v64x8m81 pmos_5p04310591302061_3v64x8m81_0/S a_n14_n34#
+ pmos_5p04310591302061_3v64x8m81_0/D w_n133_n65#
Xpmos_5p04310591302061_3v64x8m81_0 pmos_5p04310591302061_3v64x8m81_0/D a_n14_n34#
+ w_n133_n65# pmos_5p04310591302061_3v64x8m81_0/S pmos_5p04310591302061_3v64x8m81
.ends

.subckt nmos_5p04310591302010_3v64x8m81 D a_0_n44# S VSUBS
X0 D a_0_n44# S VSUBS nfet_03v3 ad=0.4642p pd=2.99u as=0.4642p ps=2.99u w=1.055u l=0.28u
.ends

.subckt nmos_1p2$$46551084_3v64x8m81 nmos_5p04310591302010_3v64x8m81_0/D a_n14_n34#
+ nmos_5p04310591302010_3v64x8m81_0/S VSUBS
Xnmos_5p04310591302010_3v64x8m81_0 nmos_5p04310591302010_3v64x8m81_0/D a_n14_n34#
+ nmos_5p04310591302010_3v64x8m81_0/S VSUBS nmos_5p04310591302010_3v64x8m81
.ends

.subckt pmos_5p04310591302060_3v64x8m81 D a_0_n44# w_n174_n86# S
X0 D a_0_n44# S w_n174_n86# pfet_03v3 ad=1.1638p pd=6.17u as=1.1638p ps=6.17u w=2.645u l=0.28u
.ends

.subckt pmos_1p2$$47821868_3v64x8m81 pmos_5p04310591302060_3v64x8m81_0/S pmos_5p04310591302060_3v64x8m81_0/D
+ a_n14_n34# w_n133_n66#
Xpmos_5p04310591302060_3v64x8m81_0 pmos_5p04310591302060_3v64x8m81_0/D a_n14_n34#
+ w_n133_n66# pmos_5p04310591302060_3v64x8m81_0/S pmos_5p04310591302060_3v64x8m81
.ends

.subckt ypredec1_xa_3v64x8m81 m1_n40_n2861# pmos_1p2$$47820844_3v64x8m81_2/pmos_5p04310591302061_3v64x8m81_0/D
+ a_145_n4683# m3_0_n4986# m1_n40_n3567# m1_n40_n3285# a_0_56# a_465_n4683# m1_n40_n3426#
+ m1_n40_n3144# pmos_1p2$$47821868_3v64x8m81_3/w_n133_n66# m1_n40_n3003# a_305_n4683#
+ pmos_1p2$$47820844_3v64x8m81_2/w_n133_n65# M3_M2$$47819820_3v64x8m81_0/VSUBS pmos_1p2$$47821868_3v64x8m81_3/pmos_5p04310591302060_3v64x8m81_0/S
Xpmos_1p2$$47820844_3v64x8m81_0 pmos_1p2$$47821868_3v64x8m81_3/pmos_5p04310591302060_3v64x8m81_0/S
+ pmos_1p2$$47821868_3v64x8m81_3/pmos_5p04310591302060_3v64x8m81_0/D pmos_1p2$$47820844_3v64x8m81_2/pmos_5p04310591302061_3v64x8m81_0/D
+ pmos_1p2$$47820844_3v64x8m81_2/w_n133_n65# pmos_1p2$$47820844_3v64x8m81
Xpmos_1p2$$47820844_3v64x8m81_1 pmos_1p2$$47820844_3v64x8m81_2/pmos_5p04310591302061_3v64x8m81_0/D
+ pmos_1p2$$47821868_3v64x8m81_3/pmos_5p04310591302060_3v64x8m81_0/D pmos_1p2$$47821868_3v64x8m81_3/pmos_5p04310591302060_3v64x8m81_0/S
+ pmos_1p2$$47820844_3v64x8m81_2/w_n133_n65# pmos_1p2$$47820844_3v64x8m81
Xnmos_1p2$$46551084_3v64x8m81_0 M3_M2$$47819820_3v64x8m81_0/VSUBS pmos_1p2$$47821868_3v64x8m81_3/pmos_5p04310591302060_3v64x8m81_0/D
+ pmos_1p2$$47820844_3v64x8m81_2/pmos_5p04310591302061_3v64x8m81_0/D M3_M2$$47819820_3v64x8m81_0/VSUBS
+ nmos_1p2$$46551084_3v64x8m81
Xpmos_1p2$$47820844_3v64x8m81_2 pmos_1p2$$47821868_3v64x8m81_3/pmos_5p04310591302060_3v64x8m81_0/S
+ pmos_1p2$$47821868_3v64x8m81_3/pmos_5p04310591302060_3v64x8m81_0/D pmos_1p2$$47820844_3v64x8m81_2/pmos_5p04310591302061_3v64x8m81_0/D
+ pmos_1p2$$47820844_3v64x8m81_2/w_n133_n65# pmos_1p2$$47820844_3v64x8m81
Xpmos_1p2$$47821868_3v64x8m81_0 pmos_1p2$$47821868_3v64x8m81_3/pmos_5p04310591302060_3v64x8m81_0/S
+ pmos_1p2$$47821868_3v64x8m81_3/pmos_5p04310591302060_3v64x8m81_0/D a_145_n4683#
+ pmos_1p2$$47821868_3v64x8m81_3/w_n133_n66# pmos_1p2$$47821868_3v64x8m81
Xnmos_1p2$$46551084_3v64x8m81_1 pmos_1p2$$47820844_3v64x8m81_2/pmos_5p04310591302061_3v64x8m81_0/D
+ pmos_1p2$$47821868_3v64x8m81_3/pmos_5p04310591302060_3v64x8m81_0/D M3_M2$$47819820_3v64x8m81_0/VSUBS
+ M3_M2$$47819820_3v64x8m81_0/VSUBS nmos_1p2$$46551084_3v64x8m81
Xnmos_1p2$$46551084_3v64x8m81_2 pmos_1p2$$47820844_3v64x8m81_2/pmos_5p04310591302061_3v64x8m81_0/D
+ pmos_1p2$$47821868_3v64x8m81_3/pmos_5p04310591302060_3v64x8m81_0/D M3_M2$$47819820_3v64x8m81_0/VSUBS
+ M3_M2$$47819820_3v64x8m81_0/VSUBS nmos_1p2$$46551084_3v64x8m81
Xpmos_1p2$$47821868_3v64x8m81_2 pmos_1p2$$47821868_3v64x8m81_3/pmos_5p04310591302060_3v64x8m81_0/D
+ pmos_1p2$$47821868_3v64x8m81_3/pmos_5p04310591302060_3v64x8m81_0/S a_305_n4683#
+ pmos_1p2$$47821868_3v64x8m81_3/w_n133_n66# pmos_1p2$$47821868_3v64x8m81
Xpmos_1p2$$47821868_3v64x8m81_3 pmos_1p2$$47821868_3v64x8m81_3/pmos_5p04310591302060_3v64x8m81_0/S
+ pmos_1p2$$47821868_3v64x8m81_3/pmos_5p04310591302060_3v64x8m81_0/D a_465_n4683#
+ pmos_1p2$$47821868_3v64x8m81_3/w_n133_n66# pmos_1p2$$47821868_3v64x8m81
X0 a_361_n4624# a_305_n4683# a_201_n4624# M3_M2$$47819820_3v64x8m81_0/VSUBS nfet_03v3 ad=0.8268p pd=3.7u as=0.8268p ps=3.7u w=3.18u l=0.28u
X1 a_201_n4624# a_145_n4683# M3_M2$$47819820_3v64x8m81_0/VSUBS M3_M2$$47819820_3v64x8m81_0/VSUBS nfet_03v3 ad=0.8268p pd=3.7u as=1.4469p ps=7.27u w=3.18u l=0.28u
X2 pmos_1p2$$47821868_3v64x8m81_3/pmos_5p04310591302060_3v64x8m81_0/D a_465_n4683# a_361_n4624# M3_M2$$47819820_3v64x8m81_0/VSUBS nfet_03v3 ad=1.5423p pd=7.33u as=0.8268p ps=3.7u w=3.18u l=0.28u
.ends

.subckt ypredec1_xax8_3v64x8m81 ypredec1_xa_3v64x8m81_7/a_305_n4683# ypredec1_xa_3v64x8m81_5/a_0_56#
+ ypredec1_xa_3v64x8m81_6/pmos_1p2$$47820844_3v64x8m81_2/pmos_5p04310591302061_3v64x8m81_0/D
+ ypredec1_xa_3v64x8m81_4/pmos_1p2$$47820844_3v64x8m81_2/pmos_5p04310591302061_3v64x8m81_0/D
+ ypredec1_xa_3v64x8m81_7/a_465_n4683# ypredec1_xa_3v64x8m81_2/pmos_1p2$$47820844_3v64x8m81_2/pmos_5p04310591302061_3v64x8m81_0/D
+ ypredec1_xa_3v64x8m81_0/pmos_1p2$$47820844_3v64x8m81_2/pmos_5p04310591302061_3v64x8m81_0/D
+ ypredec1_xa_3v64x8m81_7/pmos_1p2$$47821868_3v64x8m81_3/w_n133_n66# ypredec1_xa_3v64x8m81_7/pmos_1p2$$47820844_3v64x8m81_2/pmos_5p04310591302061_3v64x8m81_0/D
+ ypredec1_xa_3v64x8m81_5/pmos_1p2$$47820844_3v64x8m81_2/pmos_5p04310591302061_3v64x8m81_0/D
+ ypredec1_xa_3v64x8m81_7/a_145_n4683# ypredec1_xa_3v64x8m81_7/pmos_1p2$$47821868_3v64x8m81_3/pmos_5p04310591302060_3v64x8m81_0/S
+ ypredec1_xa_3v64x8m81_3/pmos_1p2$$47820844_3v64x8m81_2/pmos_5p04310591302061_3v64x8m81_0/D
+ ypredec1_xa_3v64x8m81_5/a_465_n4683# ypredec1_xa_3v64x8m81_1/pmos_1p2$$47820844_3v64x8m81_2/pmos_5p04310591302061_3v64x8m81_0/D
+ ypredec1_xa_3v64x8m81_7/pmos_1p2$$47820844_3v64x8m81_2/w_n133_n65# ypredec1_xa_3v64x8m81_6/a_305_n4683#
+ ypredec1_xa_3v64x8m81_3/a_145_n4683# VSUBS
Xypredec1_xa_3v64x8m81_1 ypredec1_xa_3v64x8m81_7/a_465_n4683# ypredec1_xa_3v64x8m81_1/pmos_1p2$$47820844_3v64x8m81_2/pmos_5p04310591302061_3v64x8m81_0/D
+ ypredec1_xa_3v64x8m81_3/a_145_n4683# VSUBS ypredec1_xa_3v64x8m81_7/a_145_n4683#
+ ypredec1_xa_3v64x8m81_5/a_465_n4683# ypredec1_xa_3v64x8m81_5/a_0_56# ypredec1_xa_3v64x8m81_5/a_465_n4683#
+ ypredec1_xa_3v64x8m81_6/a_305_n4683# ypredec1_xa_3v64x8m81_3/a_145_n4683# ypredec1_xa_3v64x8m81_7/pmos_1p2$$47821868_3v64x8m81_3/w_n133_n66#
+ ypredec1_xa_3v64x8m81_7/a_305_n4683# ypredec1_xa_3v64x8m81_6/a_305_n4683# ypredec1_xa_3v64x8m81_7/pmos_1p2$$47820844_3v64x8m81_2/w_n133_n65#
+ VSUBS ypredec1_xa_3v64x8m81_7/pmos_1p2$$47821868_3v64x8m81_3/pmos_5p04310591302060_3v64x8m81_0/S
+ ypredec1_xa_3v64x8m81
Xypredec1_xa_3v64x8m81_2 ypredec1_xa_3v64x8m81_7/a_465_n4683# ypredec1_xa_3v64x8m81_2/pmos_1p2$$47820844_3v64x8m81_2/pmos_5p04310591302061_3v64x8m81_0/D
+ ypredec1_xa_3v64x8m81_3/a_145_n4683# VSUBS ypredec1_xa_3v64x8m81_7/a_145_n4683#
+ ypredec1_xa_3v64x8m81_5/a_465_n4683# VSUBS ypredec1_xa_3v64x8m81_7/a_465_n4683#
+ ypredec1_xa_3v64x8m81_6/a_305_n4683# ypredec1_xa_3v64x8m81_3/a_145_n4683# ypredec1_xa_3v64x8m81_7/pmos_1p2$$47821868_3v64x8m81_3/w_n133_n66#
+ ypredec1_xa_3v64x8m81_7/a_305_n4683# ypredec1_xa_3v64x8m81_6/a_305_n4683# ypredec1_xa_3v64x8m81_7/pmos_1p2$$47820844_3v64x8m81_2/w_n133_n65#
+ VSUBS ypredec1_xa_3v64x8m81_7/pmos_1p2$$47821868_3v64x8m81_3/pmos_5p04310591302060_3v64x8m81_0/S
+ ypredec1_xa_3v64x8m81
Xypredec1_xa_3v64x8m81_3 ypredec1_xa_3v64x8m81_7/a_465_n4683# ypredec1_xa_3v64x8m81_3/pmos_1p2$$47820844_3v64x8m81_2/pmos_5p04310591302061_3v64x8m81_0/D
+ ypredec1_xa_3v64x8m81_3/a_145_n4683# VSUBS ypredec1_xa_3v64x8m81_7/a_145_n4683#
+ ypredec1_xa_3v64x8m81_5/a_465_n4683# ypredec1_xa_3v64x8m81_3/a_0_56# ypredec1_xa_3v64x8m81_7/a_465_n4683#
+ ypredec1_xa_3v64x8m81_6/a_305_n4683# ypredec1_xa_3v64x8m81_3/a_145_n4683# ypredec1_xa_3v64x8m81_7/pmos_1p2$$47821868_3v64x8m81_3/w_n133_n66#
+ ypredec1_xa_3v64x8m81_7/a_305_n4683# ypredec1_xa_3v64x8m81_7/a_305_n4683# ypredec1_xa_3v64x8m81_7/pmos_1p2$$47820844_3v64x8m81_2/w_n133_n65#
+ VSUBS ypredec1_xa_3v64x8m81_7/pmos_1p2$$47821868_3v64x8m81_3/pmos_5p04310591302060_3v64x8m81_0/S
+ ypredec1_xa_3v64x8m81
Xypredec1_xa_3v64x8m81_4 ypredec1_xa_3v64x8m81_7/a_465_n4683# ypredec1_xa_3v64x8m81_4/pmos_1p2$$47820844_3v64x8m81_2/pmos_5p04310591302061_3v64x8m81_0/D
+ ypredec1_xa_3v64x8m81_7/a_145_n4683# VSUBS ypredec1_xa_3v64x8m81_7/a_145_n4683#
+ ypredec1_xa_3v64x8m81_5/a_465_n4683# ypredec1_xa_3v64x8m81_4/a_0_56# ypredec1_xa_3v64x8m81_5/a_465_n4683#
+ ypredec1_xa_3v64x8m81_6/a_305_n4683# ypredec1_xa_3v64x8m81_3/a_145_n4683# ypredec1_xa_3v64x8m81_7/pmos_1p2$$47821868_3v64x8m81_3/w_n133_n66#
+ ypredec1_xa_3v64x8m81_7/a_305_n4683# ypredec1_xa_3v64x8m81_7/a_305_n4683# ypredec1_xa_3v64x8m81_7/pmos_1p2$$47820844_3v64x8m81_2/w_n133_n65#
+ VSUBS ypredec1_xa_3v64x8m81_7/pmos_1p2$$47821868_3v64x8m81_3/pmos_5p04310591302060_3v64x8m81_0/S
+ ypredec1_xa_3v64x8m81
Xypredec1_xa_3v64x8m81_5 ypredec1_xa_3v64x8m81_7/a_465_n4683# ypredec1_xa_3v64x8m81_5/pmos_1p2$$47820844_3v64x8m81_2/pmos_5p04310591302061_3v64x8m81_0/D
+ ypredec1_xa_3v64x8m81_7/a_145_n4683# VSUBS ypredec1_xa_3v64x8m81_7/a_145_n4683#
+ ypredec1_xa_3v64x8m81_5/a_465_n4683# ypredec1_xa_3v64x8m81_5/a_0_56# ypredec1_xa_3v64x8m81_5/a_465_n4683#
+ ypredec1_xa_3v64x8m81_6/a_305_n4683# ypredec1_xa_3v64x8m81_3/a_145_n4683# ypredec1_xa_3v64x8m81_7/pmos_1p2$$47821868_3v64x8m81_3/w_n133_n66#
+ ypredec1_xa_3v64x8m81_7/a_305_n4683# ypredec1_xa_3v64x8m81_6/a_305_n4683# ypredec1_xa_3v64x8m81_7/pmos_1p2$$47820844_3v64x8m81_2/w_n133_n65#
+ VSUBS ypredec1_xa_3v64x8m81_7/pmos_1p2$$47821868_3v64x8m81_3/pmos_5p04310591302060_3v64x8m81_0/S
+ ypredec1_xa_3v64x8m81
Xypredec1_xa_3v64x8m81_6 ypredec1_xa_3v64x8m81_7/a_465_n4683# ypredec1_xa_3v64x8m81_6/pmos_1p2$$47820844_3v64x8m81_2/pmos_5p04310591302061_3v64x8m81_0/D
+ ypredec1_xa_3v64x8m81_7/a_145_n4683# VSUBS ypredec1_xa_3v64x8m81_7/a_145_n4683#
+ ypredec1_xa_3v64x8m81_5/a_465_n4683# ypredec1_xa_3v64x8m81_6/a_0_56# ypredec1_xa_3v64x8m81_7/a_465_n4683#
+ ypredec1_xa_3v64x8m81_6/a_305_n4683# ypredec1_xa_3v64x8m81_3/a_145_n4683# ypredec1_xa_3v64x8m81_7/pmos_1p2$$47821868_3v64x8m81_3/w_n133_n66#
+ ypredec1_xa_3v64x8m81_7/a_305_n4683# ypredec1_xa_3v64x8m81_6/a_305_n4683# ypredec1_xa_3v64x8m81_7/pmos_1p2$$47820844_3v64x8m81_2/w_n133_n65#
+ VSUBS ypredec1_xa_3v64x8m81_7/pmos_1p2$$47821868_3v64x8m81_3/pmos_5p04310591302060_3v64x8m81_0/S
+ ypredec1_xa_3v64x8m81
Xypredec1_xa_3v64x8m81_7 ypredec1_xa_3v64x8m81_7/a_465_n4683# ypredec1_xa_3v64x8m81_7/pmos_1p2$$47820844_3v64x8m81_2/pmos_5p04310591302061_3v64x8m81_0/D
+ ypredec1_xa_3v64x8m81_7/a_145_n4683# VSUBS ypredec1_xa_3v64x8m81_7/a_145_n4683#
+ ypredec1_xa_3v64x8m81_5/a_465_n4683# ypredec1_xa_3v64x8m81_7/a_0_56# ypredec1_xa_3v64x8m81_7/a_465_n4683#
+ ypredec1_xa_3v64x8m81_6/a_305_n4683# ypredec1_xa_3v64x8m81_3/a_145_n4683# ypredec1_xa_3v64x8m81_7/pmos_1p2$$47821868_3v64x8m81_3/w_n133_n66#
+ ypredec1_xa_3v64x8m81_7/a_305_n4683# ypredec1_xa_3v64x8m81_7/a_305_n4683# ypredec1_xa_3v64x8m81_7/pmos_1p2$$47820844_3v64x8m81_2/w_n133_n65#
+ VSUBS ypredec1_xa_3v64x8m81_7/pmos_1p2$$47821868_3v64x8m81_3/pmos_5p04310591302060_3v64x8m81_0/S
+ ypredec1_xa_3v64x8m81
Xypredec1_xa_3v64x8m81_0 ypredec1_xa_3v64x8m81_7/a_465_n4683# ypredec1_xa_3v64x8m81_0/pmos_1p2$$47820844_3v64x8m81_2/pmos_5p04310591302061_3v64x8m81_0/D
+ ypredec1_xa_3v64x8m81_3/a_145_n4683# VSUBS ypredec1_xa_3v64x8m81_7/a_145_n4683#
+ ypredec1_xa_3v64x8m81_5/a_465_n4683# ypredec1_xa_3v64x8m81_0/a_0_56# ypredec1_xa_3v64x8m81_5/a_465_n4683#
+ ypredec1_xa_3v64x8m81_6/a_305_n4683# ypredec1_xa_3v64x8m81_3/a_145_n4683# ypredec1_xa_3v64x8m81_7/pmos_1p2$$47821868_3v64x8m81_3/w_n133_n66#
+ ypredec1_xa_3v64x8m81_7/a_305_n4683# ypredec1_xa_3v64x8m81_7/a_305_n4683# ypredec1_xa_3v64x8m81_7/pmos_1p2$$47820844_3v64x8m81_2/w_n133_n65#
+ VSUBS ypredec1_xa_3v64x8m81_7/pmos_1p2$$47821868_3v64x8m81_3/pmos_5p04310591302060_3v64x8m81_0/S
+ ypredec1_xa_3v64x8m81
.ends

.subckt pmos_5p04310591302062_3v64x8m81 D a_n28_n44# a_132_n44# w_n202_n86# S_uq0
+ S
X0 D a_n28_n44# S w_n202_n86# pfet_03v3 ad=0.2067p pd=1.315u as=0.3498p ps=2.47u w=0.795u l=0.28u
X1 S_uq0 a_132_n44# D w_n202_n86# pfet_03v3 ad=0.3498p pd=2.47u as=0.2067p ps=1.315u w=0.795u l=0.28u
.ends

.subckt pmos_1p2$$47109164_3v64x8m81 pmos_5p04310591302062_3v64x8m81_0/w_n202_n86#
+ pmos_5p04310591302062_3v64x8m81_0/D a_118_159# pmos_5p04310591302062_3v64x8m81_0/S_uq0
+ pmos_5p04310591302062_3v64x8m81_0/S a_n42_159#
Xpmos_5p04310591302062_3v64x8m81_0 pmos_5p04310591302062_3v64x8m81_0/D a_n42_159#
+ a_118_159# pmos_5p04310591302062_3v64x8m81_0/w_n202_n86# pmos_5p04310591302062_3v64x8m81_0/S_uq0
+ pmos_5p04310591302062_3v64x8m81_0/S pmos_5p04310591302062_3v64x8m81
.ends

.subckt nmos_5p04310591302057_3v64x8m81 D a_0_n44# S VSUBS
X0 D a_0_n44# S VSUBS nfet_03v3 ad=0.9306p pd=5.11u as=0.9306p ps=5.11u w=2.115u l=0.28u
.ends

.subckt nmos_1p2$$47514668_3v64x8m81 nmos_5p04310591302057_3v64x8m81_0/S a_n14_n34#
+ nmos_5p04310591302057_3v64x8m81_0/D VSUBS
Xnmos_5p04310591302057_3v64x8m81_0 nmos_5p04310591302057_3v64x8m81_0/D a_n14_n34#
+ nmos_5p04310591302057_3v64x8m81_0/S VSUBS nmos_5p04310591302057_3v64x8m81
.ends

.subckt pmos_5p0431059130204_3v64x8m81 D a_0_n44# w_n174_n86# S
X0 D a_0_n44# S w_n174_n86# pfet_03v3 ad=2.794p pd=13.58u as=2.794p ps=13.58u w=6.35u l=0.28u
.ends

.subckt pmos_1p2$$46887980_3v64x8m81 w_n133_n66# pmos_5p0431059130204_3v64x8m81_0/D
+ pmos_5p0431059130204_3v64x8m81_0/S a_n14_n34#
Xpmos_5p0431059130204_3v64x8m81_0 pmos_5p0431059130204_3v64x8m81_0/D a_n14_n34# w_n133_n66#
+ pmos_5p0431059130204_3v64x8m81_0/S pmos_5p0431059130204_3v64x8m81
.ends

.subckt nmos_5p0431059130208_3v64x8m81 D a_0_n44# S VSUBS
X0 D a_0_n44# S VSUBS nfet_03v3 ad=0.1958p pd=1.77u as=0.1958p ps=1.77u w=0.445u l=0.28u
.ends

.subckt pmos_5p04310591302058_3v64x8m81 D a_n28_n44# a_132_n44# w_n202_n86# S_uq0
+ S
X0 D a_n28_n44# S w_n202_n86# pfet_03v3 ad=0.5499p pd=2.635u as=0.9306p ps=5.11u w=2.115u l=0.28u
X1 S_uq0 a_132_n44# D w_n202_n86# pfet_03v3 ad=0.9306p pd=5.11u as=0.5499p ps=2.635u w=2.115u l=0.28u
.ends

.subckt pmos_1p2$$47331372_3v64x8m81 a_n42_n34# w_n133_n66# pmos_5p04310591302058_3v64x8m81_0/D
+ pmos_5p04310591302058_3v64x8m81_0/S_uq0 a_118_n34# pmos_5p04310591302058_3v64x8m81_0/S
Xpmos_5p04310591302058_3v64x8m81_0 pmos_5p04310591302058_3v64x8m81_0/D a_n42_n34#
+ a_118_n34# w_n133_n66# pmos_5p04310591302058_3v64x8m81_0/S_uq0 pmos_5p04310591302058_3v64x8m81_0/S
+ pmos_5p04310591302058_3v64x8m81
.ends

.subckt nmos_5p04310591302059_3v64x8m81 D a_n28_n44# a_132_n44# S_uq0 S VSUBS
X0 D a_n28_n44# S VSUBS nfet_03v3 ad=0.2197p pd=1.365u as=0.3718p ps=2.57u w=0.845u l=0.28u
X1 S_uq0 a_132_n44# D VSUBS nfet_03v3 ad=0.3718p pd=2.57u as=0.2197p ps=1.365u w=0.845u l=0.28u
.ends

.subckt nmos_1p2$$47329324_3v64x8m81 a_118_n34# a_n41_n34# nmos_5p04310591302059_3v64x8m81_0/S_uq0
+ nmos_5p04310591302059_3v64x8m81_0/S nmos_5p04310591302059_3v64x8m81_0/D VSUBS
Xnmos_5p04310591302059_3v64x8m81_0 nmos_5p04310591302059_3v64x8m81_0/D a_n41_n34#
+ a_118_n34# nmos_5p04310591302059_3v64x8m81_0/S_uq0 nmos_5p04310591302059_3v64x8m81_0/S
+ VSUBS nmos_5p04310591302059_3v64x8m81
.ends

.subckt nmos_1p2_157_3v64x8m81 nmos_5p04310591302010_3v64x8m81_0/D a_n14_n34# nmos_5p04310591302010_3v64x8m81_0/S
+ VSUBS
Xnmos_5p04310591302010_3v64x8m81_0 nmos_5p04310591302010_3v64x8m81_0/D a_n14_n34#
+ nmos_5p04310591302010_3v64x8m81_0/S VSUBS nmos_5p04310591302010_3v64x8m81
.ends

.subckt pmos_5p04310591302041_3v64x8m81 D a_0_n44# w_n174_n86# S
X0 D a_0_n44# S w_n174_n86# pfet_03v3 ad=0.1958p pd=1.77u as=0.1958p ps=1.77u w=0.445u l=0.28u
.ends

.subckt pmos_1p2_161_3v64x8m81 pmos_5p04310591302041_3v64x8m81_0/D a_n14_89# pmos_5p04310591302041_3v64x8m81_0/S
+ w_n133_n65#
Xpmos_5p04310591302041_3v64x8m81_0 pmos_5p04310591302041_3v64x8m81_0/D a_n14_89# w_n133_n65#
+ pmos_5p04310591302041_3v64x8m81_0/S pmos_5p04310591302041_3v64x8m81
.ends

.subckt pmos_5p04310591302014_3v64x8m81 D a_0_n44# w_n174_n86# S
X0 D a_0_n44# S w_n174_n86# pfet_03v3 ad=0.4642p pd=2.99u as=0.4642p ps=2.99u w=1.055u l=0.28u
.ends

.subckt pmos_1p2_160_3v64x8m81 w_n133_n66# pmos_5p04310591302014_3v64x8m81_0/S pmos_5p04310591302014_3v64x8m81_0/D
+ a_n14_n34#
Xpmos_5p04310591302014_3v64x8m81_0 pmos_5p04310591302014_3v64x8m81_0/D a_n14_n34#
+ w_n133_n66# pmos_5p04310591302014_3v64x8m81_0/S pmos_5p04310591302014_3v64x8m81
.ends

.subckt alatch_3v64x8m81 enb en ab a vdd vss
Xnmos_5p0431059130208_3v64x8m81_0 vss ab nmos_5p0431059130208_3v64x8m81_1/D vss nmos_5p0431059130208_3v64x8m81
Xnmos_5p0431059130208_3v64x8m81_1 nmos_5p0431059130208_3v64x8m81_1/D enb nmos_5p0431059130208_3v64x8m81_1/S
+ vss nmos_5p0431059130208_3v64x8m81
Xpmos_1p2$$47331372_3v64x8m81_0 nmos_5p0431059130208_3v64x8m81_1/S vdd ab vdd nmos_5p0431059130208_3v64x8m81_1/S
+ vdd pmos_1p2$$47331372_3v64x8m81
Xnmos_1p2$$47329324_3v64x8m81_0 nmos_5p0431059130208_3v64x8m81_1/S nmos_5p0431059130208_3v64x8m81_1/S
+ vss vss ab vss nmos_1p2$$47329324_3v64x8m81
Xnmos_1p2_157_3v64x8m81_0 a en nmos_5p0431059130208_3v64x8m81_1/S vss nmos_1p2_157_3v64x8m81
Xpmos_1p2_161_3v64x8m81_1 vdd ab nmos_5p0431059130208_3v64x8m81_1/D vdd pmos_1p2_161_3v64x8m81
Xpmos_1p2_161_3v64x8m81_0 nmos_5p0431059130208_3v64x8m81_1/D en nmos_5p0431059130208_3v64x8m81_1/S
+ vdd pmos_1p2_161_3v64x8m81
Xpmos_1p2_160_3v64x8m81_0 vdd nmos_5p0431059130208_3v64x8m81_1/S a enb pmos_1p2_160_3v64x8m81
.ends

.subckt ypredec1_bot_3v64x8m81 m1_n9_2295# pmos_1p2$$46887980_3v64x8m81_0/pmos_5p0431059130204_3v64x8m81_0/D
+ m1_n9_2436# m1_n9_2154# m1_n9_2013# pmos_1p2$$46887980_3v64x8m81_1/pmos_5p0431059130204_3v64x8m81_0/S
+ m1_n9_1871# m1_n9_1730# pmos_1p2$$46887980_3v64x8m81_1/pmos_5p0431059130204_3v64x8m81_0/D
+ alatch_3v64x8m81_0/a alatch_3v64x8m81_0/enb alatch_3v64x8m81_0/vdd VSUBS alatch_3v64x8m81_0/en
Xnmos_1p2$$47514668_3v64x8m81_0 VSUBS pmos_1p2$$46887980_3v64x8m81_1/pmos_5p0431059130204_3v64x8m81_0/D
+ pmos_1p2$$46887980_3v64x8m81_0/pmos_5p0431059130204_3v64x8m81_0/D VSUBS nmos_1p2$$47514668_3v64x8m81
Xnmos_1p2$$47514668_3v64x8m81_1 VSUBS alatch_3v64x8m81_0/ab pmos_1p2$$46887980_3v64x8m81_1/pmos_5p0431059130204_3v64x8m81_0/D
+ VSUBS nmos_1p2$$47514668_3v64x8m81
Xpmos_1p2$$46887980_3v64x8m81_0 pmos_1p2$$46887980_3v64x8m81_1/pmos_5p0431059130204_3v64x8m81_0/S
+ pmos_1p2$$46887980_3v64x8m81_0/pmos_5p0431059130204_3v64x8m81_0/D pmos_1p2$$46887980_3v64x8m81_1/pmos_5p0431059130204_3v64x8m81_0/S
+ pmos_1p2$$46887980_3v64x8m81_1/pmos_5p0431059130204_3v64x8m81_0/D pmos_1p2$$46887980_3v64x8m81
Xpmos_1p2$$46887980_3v64x8m81_1 pmos_1p2$$46887980_3v64x8m81_1/pmos_5p0431059130204_3v64x8m81_0/S
+ pmos_1p2$$46887980_3v64x8m81_1/pmos_5p0431059130204_3v64x8m81_0/D pmos_1p2$$46887980_3v64x8m81_1/pmos_5p0431059130204_3v64x8m81_0/S
+ alatch_3v64x8m81_0/ab pmos_1p2$$46887980_3v64x8m81
Xalatch_3v64x8m81_0 alatch_3v64x8m81_0/enb alatch_3v64x8m81_0/en alatch_3v64x8m81_0/ab
+ alatch_3v64x8m81_0/a alatch_3v64x8m81_0/vdd VSUBS alatch_3v64x8m81
.ends

.subckt nmos_5p04310591302053_3v64x8m81 D a_0_n44# S VSUBS
X0 D a_0_n44# S VSUBS nfet_03v3 ad=0.2772p pd=2.14u as=0.2772p ps=2.14u w=0.63u l=0.28u
.ends

.subckt nmos_1p2$$47342636_3v64x8m81 nmos_5p04310591302053_3v64x8m81_0/S nmos_5p04310591302053_3v64x8m81_0/D
+ a_n14_n34# VSUBS
Xnmos_5p04310591302053_3v64x8m81_0 nmos_5p04310591302053_3v64x8m81_0/D a_n14_n34#
+ nmos_5p04310591302053_3v64x8m81_0/S VSUBS nmos_5p04310591302053_3v64x8m81
.ends

.subckt ypredec1_3v64x8m81 ly[5] ly[4] ly[7] ly[3] ly[2] ly[1] ly[0] ry[0] ry[1] ry[2]
+ ry[3] ry[4] ry[5] ry[6] ry[7] ly[6] men A[0] A[1] A[2] clk pmos_1p2$$47109164_3v64x8m81_0/pmos_5p04310591302062_3v64x8m81_0/w_n202_n86#
+ pmos_1p2$$47109164_3v64x8m81_0/pmos_5p04310591302062_3v64x8m81_0/S ypredec1_bot_3v64x8m81_2/alatch_3v64x8m81_0/vdd
+ M1_NWELL13_3v64x8m81_0/VSUBS ypredec1_bot_3v64x8m81_2/pmos_1p2$$46887980_3v64x8m81_1/pmos_5p0431059130204_3v64x8m81_0/S
+ ypredec1_ys_3v64x8m81_9/pmos_5p04310591302055_3v64x8m81_3/D
Xnmos_5p04310591302056_3v64x8m81_0 M1_NWELL13_3v64x8m81_0/VSUBS clk nmos_5p04310591302056_3v64x8m81_1/D
+ M1_NWELL13_3v64x8m81_0/VSUBS nmos_5p04310591302056_3v64x8m81
Xypredec1_ys_3v64x8m81_9 M1_NWELL13_3v64x8m81_0/VSUBS ypredec1_xax8_3v64x8m81_0/ypredec1_xa_3v64x8m81_3/pmos_1p2$$47820844_3v64x8m81_2/pmos_5p04310591302061_3v64x8m81_0/D
+ ry[7] M1_NWELL13_3v64x8m81_0/VSUBS ypredec1_ys_3v64x8m81_9/pmos_5p04310591302055_3v64x8m81_3/D
+ ypredec1_ys_3v64x8m81
Xnmos_5p04310591302056_3v64x8m81_1 nmos_5p04310591302056_3v64x8m81_1/D men M1_NWELL13_3v64x8m81_0/VSUBS
+ M1_NWELL13_3v64x8m81_0/VSUBS nmos_5p04310591302056_3v64x8m81
Xypredec1_xax8_3v64x8m81_0 ypredec1_bot_3v64x8m81_2/pmos_1p2$$46887980_3v64x8m81_1/pmos_5p0431059130204_3v64x8m81_0/D
+ M1_NWELL13_3v64x8m81_0/VSUBS ypredec1_xax8_3v64x8m81_0/ypredec1_xa_3v64x8m81_6/pmos_1p2$$47820844_3v64x8m81_2/pmos_5p04310591302061_3v64x8m81_0/D
+ ypredec1_xax8_3v64x8m81_0/ypredec1_xa_3v64x8m81_4/pmos_1p2$$47820844_3v64x8m81_2/pmos_5p04310591302061_3v64x8m81_0/D
+ ypredec1_bot_3v64x8m81_1/pmos_1p2$$46887980_3v64x8m81_1/pmos_5p0431059130204_3v64x8m81_0/D
+ ypredec1_xax8_3v64x8m81_0/ypredec1_xa_3v64x8m81_2/pmos_1p2$$47820844_3v64x8m81_2/pmos_5p04310591302061_3v64x8m81_0/D
+ ypredec1_xax8_3v64x8m81_0/ypredec1_xa_3v64x8m81_0/pmos_1p2$$47820844_3v64x8m81_2/pmos_5p04310591302061_3v64x8m81_0/D
+ ypredec1_bot_3v64x8m81_2/pmos_1p2$$46887980_3v64x8m81_1/pmos_5p0431059130204_3v64x8m81_0/S
+ ypredec1_xax8_3v64x8m81_0/ypredec1_xa_3v64x8m81_7/pmos_1p2$$47820844_3v64x8m81_2/pmos_5p04310591302061_3v64x8m81_0/D
+ ypredec1_xax8_3v64x8m81_0/ypredec1_xa_3v64x8m81_5/pmos_1p2$$47820844_3v64x8m81_2/pmos_5p04310591302061_3v64x8m81_0/D
+ ypredec1_bot_3v64x8m81_0/pmos_1p2$$46887980_3v64x8m81_0/pmos_5p0431059130204_3v64x8m81_0/D
+ ypredec1_bot_3v64x8m81_2/pmos_1p2$$46887980_3v64x8m81_1/pmos_5p0431059130204_3v64x8m81_0/S
+ ypredec1_xax8_3v64x8m81_0/ypredec1_xa_3v64x8m81_3/pmos_1p2$$47820844_3v64x8m81_2/pmos_5p04310591302061_3v64x8m81_0/D
+ ypredec1_bot_3v64x8m81_1/pmos_1p2$$46887980_3v64x8m81_0/pmos_5p0431059130204_3v64x8m81_0/D
+ ypredec1_xax8_3v64x8m81_0/ypredec1_xa_3v64x8m81_1/pmos_1p2$$47820844_3v64x8m81_2/pmos_5p04310591302061_3v64x8m81_0/D
+ ypredec1_bot_3v64x8m81_2/pmos_1p2$$46887980_3v64x8m81_1/pmos_5p0431059130204_3v64x8m81_0/S
+ ypredec1_bot_3v64x8m81_2/pmos_1p2$$46887980_3v64x8m81_0/pmos_5p0431059130204_3v64x8m81_0/D
+ ypredec1_bot_3v64x8m81_0/pmos_1p2$$46887980_3v64x8m81_1/pmos_5p0431059130204_3v64x8m81_0/D
+ M1_NWELL13_3v64x8m81_0/VSUBS ypredec1_xax8_3v64x8m81
Xpmos_1p2$$47109164_3v64x8m81_0 pmos_1p2$$47109164_3v64x8m81_0/pmos_5p04310591302062_3v64x8m81_0/w_n202_n86#
+ ypredec1_bot_3v64x8m81_2/alatch_3v64x8m81_0/enb nmos_5p04310591302056_3v64x8m81_1/D
+ pmos_1p2$$47109164_3v64x8m81_0/pmos_5p04310591302062_3v64x8m81_0/S pmos_1p2$$47109164_3v64x8m81_0/pmos_5p04310591302062_3v64x8m81_0/S
+ nmos_5p04310591302056_3v64x8m81_1/D pmos_1p2$$47109164_3v64x8m81
Xypredec1_bot_3v64x8m81_0 ypredec1_bot_3v64x8m81_2/pmos_1p2$$46887980_3v64x8m81_1/pmos_5p0431059130204_3v64x8m81_0/D
+ ypredec1_bot_3v64x8m81_0/pmos_1p2$$46887980_3v64x8m81_0/pmos_5p0431059130204_3v64x8m81_0/D
+ ypredec1_bot_3v64x8m81_1/pmos_1p2$$46887980_3v64x8m81_1/pmos_5p0431059130204_3v64x8m81_0/D
+ ypredec1_bot_3v64x8m81_0/pmos_1p2$$46887980_3v64x8m81_1/pmos_5p0431059130204_3v64x8m81_0/D
+ ypredec1_bot_3v64x8m81_1/pmos_1p2$$46887980_3v64x8m81_0/pmos_5p0431059130204_3v64x8m81_0/D
+ ypredec1_bot_3v64x8m81_2/pmos_1p2$$46887980_3v64x8m81_1/pmos_5p0431059130204_3v64x8m81_0/S
+ ypredec1_bot_3v64x8m81_2/pmos_1p2$$46887980_3v64x8m81_0/pmos_5p0431059130204_3v64x8m81_0/D
+ ypredec1_bot_3v64x8m81_0/pmos_1p2$$46887980_3v64x8m81_0/pmos_5p0431059130204_3v64x8m81_0/D
+ ypredec1_bot_3v64x8m81_0/pmos_1p2$$46887980_3v64x8m81_1/pmos_5p0431059130204_3v64x8m81_0/D
+ A[0] ypredec1_bot_3v64x8m81_2/alatch_3v64x8m81_0/enb ypredec1_bot_3v64x8m81_2/alatch_3v64x8m81_0/vdd
+ M1_NWELL13_3v64x8m81_0/VSUBS nmos_5p04310591302056_3v64x8m81_1/D ypredec1_bot_3v64x8m81
Xypredec1_bot_3v64x8m81_1 ypredec1_bot_3v64x8m81_2/pmos_1p2$$46887980_3v64x8m81_1/pmos_5p0431059130204_3v64x8m81_0/D
+ ypredec1_bot_3v64x8m81_1/pmos_1p2$$46887980_3v64x8m81_0/pmos_5p0431059130204_3v64x8m81_0/D
+ ypredec1_bot_3v64x8m81_1/pmos_1p2$$46887980_3v64x8m81_1/pmos_5p0431059130204_3v64x8m81_0/D
+ ypredec1_bot_3v64x8m81_0/pmos_1p2$$46887980_3v64x8m81_1/pmos_5p0431059130204_3v64x8m81_0/D
+ ypredec1_bot_3v64x8m81_1/pmos_1p2$$46887980_3v64x8m81_0/pmos_5p0431059130204_3v64x8m81_0/D
+ ypredec1_bot_3v64x8m81_2/pmos_1p2$$46887980_3v64x8m81_1/pmos_5p0431059130204_3v64x8m81_0/S
+ ypredec1_bot_3v64x8m81_2/pmos_1p2$$46887980_3v64x8m81_0/pmos_5p0431059130204_3v64x8m81_0/D
+ ypredec1_bot_3v64x8m81_0/pmos_1p2$$46887980_3v64x8m81_0/pmos_5p0431059130204_3v64x8m81_0/D
+ ypredec1_bot_3v64x8m81_1/pmos_1p2$$46887980_3v64x8m81_1/pmos_5p0431059130204_3v64x8m81_0/D
+ A[2] ypredec1_bot_3v64x8m81_2/alatch_3v64x8m81_0/enb ypredec1_bot_3v64x8m81_2/alatch_3v64x8m81_0/vdd
+ M1_NWELL13_3v64x8m81_0/VSUBS nmos_5p04310591302056_3v64x8m81_1/D ypredec1_bot_3v64x8m81
Xypredec1_bot_3v64x8m81_2 ypredec1_bot_3v64x8m81_2/pmos_1p2$$46887980_3v64x8m81_1/pmos_5p0431059130204_3v64x8m81_0/D
+ ypredec1_bot_3v64x8m81_2/pmos_1p2$$46887980_3v64x8m81_0/pmos_5p0431059130204_3v64x8m81_0/D
+ ypredec1_bot_3v64x8m81_1/pmos_1p2$$46887980_3v64x8m81_1/pmos_5p0431059130204_3v64x8m81_0/D
+ ypredec1_bot_3v64x8m81_0/pmos_1p2$$46887980_3v64x8m81_1/pmos_5p0431059130204_3v64x8m81_0/D
+ ypredec1_bot_3v64x8m81_1/pmos_1p2$$46887980_3v64x8m81_0/pmos_5p0431059130204_3v64x8m81_0/D
+ ypredec1_bot_3v64x8m81_2/pmos_1p2$$46887980_3v64x8m81_1/pmos_5p0431059130204_3v64x8m81_0/S
+ ypredec1_bot_3v64x8m81_2/pmos_1p2$$46887980_3v64x8m81_0/pmos_5p0431059130204_3v64x8m81_0/D
+ ypredec1_bot_3v64x8m81_0/pmos_1p2$$46887980_3v64x8m81_0/pmos_5p0431059130204_3v64x8m81_0/D
+ ypredec1_bot_3v64x8m81_2/pmos_1p2$$46887980_3v64x8m81_1/pmos_5p0431059130204_3v64x8m81_0/D
+ A[1] ypredec1_bot_3v64x8m81_2/alatch_3v64x8m81_0/enb ypredec1_bot_3v64x8m81_2/alatch_3v64x8m81_0/vdd
+ M1_NWELL13_3v64x8m81_0/VSUBS nmos_5p04310591302056_3v64x8m81_1/D ypredec1_bot_3v64x8m81
Xypredec1_ys_3v64x8m81_0 M1_NWELL13_3v64x8m81_0/VSUBS ypredec1_xax8_3v64x8m81_0/ypredec1_xa_3v64x8m81_0/pmos_1p2$$47820844_3v64x8m81_2/pmos_5p04310591302061_3v64x8m81_0/D
+ ly[3] M1_NWELL13_3v64x8m81_0/VSUBS ypredec1_ys_3v64x8m81_9/pmos_5p04310591302055_3v64x8m81_3/D
+ ypredec1_ys_3v64x8m81
Xypredec1_ys_3v64x8m81_10 M1_NWELL13_3v64x8m81_0/VSUBS ypredec1_xax8_3v64x8m81_0/ypredec1_xa_3v64x8m81_1/pmos_1p2$$47820844_3v64x8m81_2/pmos_5p04310591302061_3v64x8m81_0/D
+ ry[1] M1_NWELL13_3v64x8m81_0/VSUBS ypredec1_ys_3v64x8m81_9/pmos_5p04310591302055_3v64x8m81_3/D
+ ypredec1_ys_3v64x8m81
Xypredec1_ys_3v64x8m81_1 M1_NWELL13_3v64x8m81_0/VSUBS ypredec1_xax8_3v64x8m81_0/ypredec1_xa_3v64x8m81_6/pmos_1p2$$47820844_3v64x8m81_2/pmos_5p04310591302061_3v64x8m81_0/D
+ ly[4] M1_NWELL13_3v64x8m81_0/VSUBS ypredec1_ys_3v64x8m81_9/pmos_5p04310591302055_3v64x8m81_3/D
+ ypredec1_ys_3v64x8m81
Xypredec1_ys_3v64x8m81_11 M1_NWELL13_3v64x8m81_0/VSUBS ypredec1_xax8_3v64x8m81_0/ypredec1_xa_3v64x8m81_4/pmos_1p2$$47820844_3v64x8m81_2/pmos_5p04310591302061_3v64x8m81_0/D
+ ry[2] M1_NWELL13_3v64x8m81_0/VSUBS ypredec1_ys_3v64x8m81_9/pmos_5p04310591302055_3v64x8m81_3/D
+ ypredec1_ys_3v64x8m81
Xypredec1_ys_3v64x8m81_2 M1_NWELL13_3v64x8m81_0/VSUBS ypredec1_xax8_3v64x8m81_0/ypredec1_xa_3v64x8m81_2/pmos_1p2$$47820844_3v64x8m81_2/pmos_5p04310591302061_3v64x8m81_0/D
+ ly[5] M1_NWELL13_3v64x8m81_0/VSUBS ypredec1_ys_3v64x8m81_9/pmos_5p04310591302055_3v64x8m81_3/D
+ ypredec1_ys_3v64x8m81