* NGSPICE file created from gf180mcu_ocd_ip_sram__sram1024x16m8wm1.ext - technology: gf180mcuD

.subckt pmos_5p0431059130201_3v1024x8m81 D a_0_n44# w_n174_n86# S
X0 D a_0_n44# S w_n174_n86# pfet_03v3 ad=1.397p pd=7.23u as=1.397p ps=7.23u w=3.175u l=0.28u
.ends

.subckt pmos_1p2$$46889004_3v1024x8m81 pmos_5p0431059130201_3v1024x8m81_0/D a_n14_n34#
+ w_n133_n66# pmos_5p0431059130201_3v1024x8m81_0/S
Xpmos_5p0431059130201_3v1024x8m81_0 pmos_5p0431059130201_3v1024x8m81_0/D a_n14_n34#
+ w_n133_n66# pmos_5p0431059130201_3v1024x8m81_0/S pmos_5p0431059130201_3v1024x8m81
.ends

.subckt pmos_5p0431059130206_3v1024x8m81 D S_uq0 a_130_n40# S w_n200_n80# a_n20_n40#
X0 S_uq0 a_130_n40# D w_n200_n80# pfet_03v3 ad=0.18p pd=1.7u as=0.11p ps=0.95u w=0.4u l=0.25u
X1 D a_n20_n40# S w_n200_n80# pfet_03v3 ad=0.11p pd=0.95u as=0.18p ps=1.7u w=0.4u l=0.2u
.ends

.subckt pmos_1p2$$46885932_3v1024x8m81 pmos_5p0431059130206_3v1024x8m81_0/D pmos_5p0431059130206_3v1024x8m81_0/S_uq0
+ a_n42_89# pmos_5p0431059130206_3v1024x8m81_0/S w_n133_n65#
Xpmos_5p0431059130206_3v1024x8m81_0 pmos_5p0431059130206_3v1024x8m81_0/D pmos_5p0431059130206_3v1024x8m81_0/S_uq0
+ a_118_89# pmos_5p0431059130206_3v1024x8m81_0/S w_n133_n65# a_n42_89# pmos_5p0431059130206_3v1024x8m81
.ends

.subckt nmos_5p0431059130207_3v1024x8m81 D a_0_n40# S VSUBS
X0 D a_0_n40# S VSUBS nfet_03v3 ad=2.8575p pd=13.6u as=2.54p ps=13.5u w=6.35u l=0.25u
.ends

.subckt nmos_1p2$$46884908_3v1024x8m81 a_n14_n34# nmos_5p0431059130207_3v1024x8m81_0/S
+ nmos_5p0431059130207_3v1024x8m81_0/D VSUBS
Xnmos_5p0431059130207_3v1024x8m81_0 nmos_5p0431059130207_3v1024x8m81_0/D a_n14_n34#
+ nmos_5p0431059130207_3v1024x8m81_0/S VSUBS nmos_5p0431059130207_3v1024x8m81
.ends

.subckt pmos_5p0431059130209_3v1024x8m81 D w_n170_n80# a_0_n40# S
X0 D a_0_n40# S w_n170_n80# pfet_03v3 ad=2.3625p pd=11.4u as=2.1p ps=11.3u w=5.25u l=0.25u
.ends

.subckt pmos_5p0431059130204_3v1024x8m81 D w_n170_n80# a_0_n40# S
X0 D a_0_n40# S w_n170_n80# pfet_03v3 ad=2.8575p pd=13.6u as=2.54p ps=13.5u w=6.35u l=0.25u
.ends

.subckt pmos_1p2$$46887980_3v1024x8m81 pmos_5p0431059130204_3v1024x8m81_0/S pmos_5p0431059130204_3v1024x8m81_0/D
+ w_n132_n66# a_n14_n34#
Xpmos_5p0431059130204_3v1024x8m81_0 pmos_5p0431059130204_3v1024x8m81_0/D w_n132_n66#
+ a_n14_n34# pmos_5p0431059130204_3v1024x8m81_0/S pmos_5p0431059130204_3v1024x8m81
.ends

.subckt pmos_5p0431059130203_3v1024x8m81 D S_uq0 a_130_n40# S w_n200_n80# a_n20_n40#
X0 S_uq0 a_130_n40# D w_n200_n80# pfet_03v3 ad=0.225p pd=1.9u as=0.1375p ps=1.05u w=0.5u l=0.25u
X1 D a_n20_n40# S w_n200_n80# pfet_03v3 ad=0.1375p pd=1.05u as=0.225p ps=1.9u w=0.5u l=0.2u
.ends

.subckt pmos_1p2$$46273580_3v1024x8m81 pmos_5p0431059130203_3v1024x8m81_0/S a_118_n34#
+ a_n42_n34# w_n132_n66# pmos_5p0431059130203_3v1024x8m81_0/D pmos_5p0431059130203_3v1024x8m81_0/S_uq0
Xpmos_5p0431059130203_3v1024x8m81_0 pmos_5p0431059130203_3v1024x8m81_0/D pmos_5p0431059130203_3v1024x8m81_0/S_uq0
+ a_118_n34# pmos_5p0431059130203_3v1024x8m81_0/S w_n132_n66# a_n42_n34# pmos_5p0431059130203_3v1024x8m81
.ends

.subckt nmos_5p04310591302011_3v1024x8m81 D S_uq0 a_130_n40# S a_n20_n40# VSUBS
X0 S_uq0 a_130_n40# D VSUBS nfet_03v3 ad=0.18p pd=1.7u as=0.11p ps=0.95u w=0.4u l=0.25u
X1 D a_n20_n40# S VSUBS nfet_03v3 ad=0.11p pd=0.95u as=0.18p ps=1.7u w=0.4u l=0.2u
.ends

.subckt nmos_5p0431059130208_3v1024x8m81 D a_0_n40# S VSUBS
X0 D a_0_n40# S VSUBS nfet_03v3 ad=0.18p pd=1.7u as=0.16p ps=1.6u w=0.4u l=0.25u
.ends

.subckt nmos_1p2$$46563372_3v1024x8m81 nmos_5p0431059130208_3v1024x8m81_0/S nmos_5p0431059130208_3v1024x8m81_0/D
+ a_n14_89# VSUBS
Xnmos_5p0431059130208_3v1024x8m81_0 nmos_5p0431059130208_3v1024x8m81_0/D a_n14_89#
+ nmos_5p0431059130208_3v1024x8m81_0/S VSUBS nmos_5p0431059130208_3v1024x8m81
.ends

.subckt nmos_5p04310591302010_3v1024x8m81 D a_0_n40# S VSUBS
X0 D a_0_n40# S VSUBS nfet_03v3 ad=0.4725p pd=3u as=0.42p ps=2.9u w=1.05u l=0.25u
.ends

.subckt nmos_5p0431059130205_3v1024x8m81 D a_0_n40# S VSUBS
X0 D a_0_n40# S VSUBS nfet_03v3 ad=2.3625p pd=11.4u as=2.1p ps=11.3u w=5.25u l=0.25u
.ends

.subckt nmos_1p2$$46883884_3v1024x8m81 nmos_5p0431059130205_3v1024x8m81_0/D nmos_5p0431059130205_3v1024x8m81_0/S
+ VSUBS
Xnmos_5p0431059130205_3v1024x8m81_0 nmos_5p0431059130205_3v1024x8m81_0/D a_n14_n34#
+ nmos_5p0431059130205_3v1024x8m81_0/S VSUBS nmos_5p0431059130205_3v1024x8m81
.ends

.subckt din_3v1024x8m81 vss datain men db d w_n134_3584# wep pmos_5p0431059130206_3v1024x8m81_0/D
+ vdd m1_114_5647# VSUBS
Xpmos_1p2$$46889004_3v1024x8m81_0 pmos_1p2$$46889004_3v1024x8m81_0/pmos_5p0431059130201_3v1024x8m81_0/D
+ a_507_5030# vdd d pmos_1p2$$46889004_3v1024x8m81
Xpmos_1p2$$46889004_3v1024x8m81_1 pmos_5p0431059130209_3v1024x8m81_0/S a_507_5030#
+ vdd db pmos_1p2$$46889004_3v1024x8m81
Xpmos_1p2$$46885932_3v1024x8m81_0 nmos_5p04310591302011_3v1024x8m81_1/D nmos_5p04310591302011_3v1024x8m81_1/S_uq0
+ men nmos_5p04310591302011_3v1024x8m81_1/S pmos_5p0431059130206_3v1024x8m81_0/D pmos_1p2$$46885932_3v1024x8m81
Xnmos_1p2$$46884908_3v1024x8m81_0 a_44_3372# VSUBS pmos_1p2$$46889004_3v1024x8m81_0/pmos_5p0431059130201_3v1024x8m81_0/D
+ VSUBS nmos_1p2$$46884908_3v1024x8m81
Xpmos_5p0431059130201_3v1024x8m81_0 pmos_5p0431059130206_3v1024x8m81_0/D a_1533_1258#
+ pmos_5p0431059130206_3v1024x8m81_0/D pmos_5p0431059130201_3v1024x8m81_0/S pmos_5p0431059130201_3v1024x8m81
Xpmos_5p0431059130209_3v1024x8m81_0 vdd vdd pmos_1p2$$46889004_3v1024x8m81_0/pmos_5p0431059130201_3v1024x8m81_0/D
+ pmos_5p0431059130209_3v1024x8m81_0/S pmos_5p0431059130209_3v1024x8m81
Xpmos_1p2$$46887980_3v1024x8m81_0 vdd pmos_1p2$$46889004_3v1024x8m81_0/pmos_5p0431059130201_3v1024x8m81_0/D
+ vdd a_44_3372# pmos_1p2$$46887980_3v1024x8m81
Xpmos_1p2$$46273580_3v1024x8m81_0 pmos_5p0431059130206_3v1024x8m81_0/D men men pmos_5p0431059130206_3v1024x8m81_0/D
+ pmos_1p2$$46273580_3v1024x8m81_0/pmos_5p0431059130203_3v1024x8m81_0/D pmos_5p0431059130206_3v1024x8m81_0/D
+ pmos_1p2$$46273580_3v1024x8m81
Xpmos_5p0431059130206_3v1024x8m81_0 pmos_5p0431059130206_3v1024x8m81_0/D nmos_5p04310591302011_3v1024x8m81_1/S
+ pmos_5p0431059130206_3v1024x8m81_0/S pmos_5p0431059130206_3v1024x8m81_0/S pmos_5p0431059130206_3v1024x8m81_0/D
+ datain pmos_5p0431059130206_3v1024x8m81
Xpmos_1p2$$46273580_3v1024x8m81_1 pmos_5p0431059130206_3v1024x8m81_0/D a_976_1698#
+ a_976_1698# pmos_5p0431059130206_3v1024x8m81_0/D nmos_5p04310591302011_3v1024x8m81_1/S_uq0
+ pmos_5p0431059130206_3v1024x8m81_0/D pmos_1p2$$46273580_3v1024x8m81
Xnmos_5p04310591302011_3v1024x8m81_0 VSUBS nmos_5p04310591302011_3v1024x8m81_1/S pmos_5p0431059130206_3v1024x8m81_0/S
+ pmos_5p0431059130206_3v1024x8m81_0/S datain VSUBS nmos_5p04310591302011_3v1024x8m81
Xnmos_5p04310591302011_3v1024x8m81_1 nmos_5p04310591302011_3v1024x8m81_1/D nmos_5p04310591302011_3v1024x8m81_1/S_uq0
+ men nmos_5p04310591302011_3v1024x8m81_1/S nmos_5p04310591302011_3v1024x8m81_1/a_n20_n40#
+ VSUBS nmos_5p04310591302011_3v1024x8m81
Xnmos_1p2$$46563372_3v1024x8m81_0 VSUBS nmos_5p04310591302011_3v1024x8m81_1/S_uq0
+ a_976_1698# VSUBS nmos_1p2$$46563372_3v1024x8m81
Xnmos_1p2$$46563372_3v1024x8m81_1 VSUBS pmos_1p2$$46273580_3v1024x8m81_0/pmos_5p0431059130203_3v1024x8m81_0/D
+ nmos_1p2$$46563372_3v1024x8m81_1/a_n14_89# VSUBS nmos_1p2$$46563372_3v1024x8m81
Xnmos_5p04310591302010_3v1024x8m81_0 VSUBS a_1533_1258# pmos_5p0431059130201_3v1024x8m81_0/S
+ VSUBS nmos_5p04310591302010_3v1024x8m81
Xnmos_1p2$$46883884_3v1024x8m81_0 pmos_5p0431059130209_3v1024x8m81_0/S db VSUBS nmos_1p2$$46883884_3v1024x8m81
Xnmos_1p2$$46883884_3v1024x8m81_1 VSUBS pmos_5p0431059130209_3v1024x8m81_0/S VSUBS
+ nmos_1p2$$46883884_3v1024x8m81
Xnmos_1p2$$46883884_3v1024x8m81_2 pmos_1p2$$46889004_3v1024x8m81_0/pmos_5p0431059130201_3v1024x8m81_0/D
+ d VSUBS nmos_1p2$$46883884_3v1024x8m81
X0 vdd wep a_507_5030# vdd pfet_03v3 ad=0.38572p pd=2.5u as=0.1859p ps=1.23u w=0.695u l=0.28u
X1 a_507_5030# wep vdd vdd pfet_03v3 ad=0.1859p pd=1.23u as=0.38572p ps=2.5u w=0.695u l=0.28u
X2 a_507_5030# wep vss VSUBS nfet_03v3 ad=0.28355p pd=2.13u as=0.3103p ps=2.23u w=0.535u l=0.28u
.ends

.subckt nmos_5p04310591302012_3v1024x8m81 D_uq0 D a_70_n40# a_230_n40# a_390_n40#
+ S_uq1 S_uq0 S a_n80_n40# VSUBS
X0 S a_70_n40# D VSUBS nfet_03v3 ad=0.2625p pd=1.55u as=0.23625p ps=1.5u w=1.05u l=0.3u
X1 S_uq0 a_390_n40# D_uq0 VSUBS nfet_03v3 ad=0.4725p pd=3u as=0.2625p ps=1.55u w=1.05u l=0.3u
X2 D_uq0 a_230_n40# S VSUBS nfet_03v3 ad=0.2625p pd=1.55u as=0.2625p ps=1.55u w=1.05u l=0.3u
X3 D a_n80_n40# S_uq1 VSUBS nfet_03v3 ad=0.23625p pd=1.5u as=0.4725p ps=3u w=1.05u l=0.3u
.ends

.subckt nmos_5p04310591302036_3v1024x8m81 D_uq1 D_uq0 D a_200_n40# a_360_n40# a_n110_n40#
+ S_uq1 S_uq0 S a_530_n40# a_40_n40# VSUBS
X0 S a_40_n40# D_uq1 VSUBS nfet_03v3 ad=0.125p pd=1u as=0.1125p ps=0.95u w=0.5u l=0.3u
X1 S_uq0 a_360_n40# D VSUBS nfet_03v3 ad=0.1375p pd=1.05u as=0.125p ps=1u w=0.5u l=0.3u
X2 D a_200_n40# S VSUBS nfet_03v3 ad=0.125p pd=1u as=0.125p ps=1u w=0.5u l=0.3u
X3 D_uq0 a_530_n40# S_uq0 VSUBS nfet_03v3 ad=0.225p pd=1.9u as=0.1375p ps=1.05u w=0.5u l=0.25u
X4 D_uq1 a_n110_n40# S_uq1 VSUBS nfet_03v3 ad=0.1125p pd=0.95u as=0.225p ps=1.9u w=0.5u l=0.3u
.ends

.subckt nmos_1p2$$45101100_3v1024x8m81 a_356_n34# nmos_5p04310591302036_3v1024x8m81_0/S
+ a_n124_n34# nmos_5p04310591302036_3v1024x8m81_0/D a_34_n34# a_516_n34# nmos_5p04310591302036_3v1024x8m81_0/S_uq1
+ nmos_5p04310591302036_3v1024x8m81_0/S_uq0 nmos_5p04310591302036_3v1024x8m81_0/D_uq1
+ VSUBS a_194_n34# nmos_5p04310591302036_3v1024x8m81_0/D_uq0
Xnmos_5p04310591302036_3v1024x8m81_0 nmos_5p04310591302036_3v1024x8m81_0/D_uq1 nmos_5p04310591302036_3v1024x8m81_0/D_uq0
+ nmos_5p04310591302036_3v1024x8m81_0/D a_194_n34# a_356_n34# a_n124_n34# nmos_5p04310591302036_3v1024x8m81_0/S_uq1
+ nmos_5p04310591302036_3v1024x8m81_0/S_uq0 nmos_5p04310591302036_3v1024x8m81_0/S
+ a_516_n34# a_34_n34# VSUBS nmos_5p04310591302036_3v1024x8m81
.ends

.subckt pmos_5p04310591302027_3v1024x8m81 D a_n28_n44# a_132_n44# w_n202_n86# S_uq0
+ S
X0 D a_n28_n44# S w_n202_n86# pfet_03v3 ad=0.1456p pd=1.08u as=0.2464p ps=2u w=0.56u l=0.28u
X1 S_uq0 a_132_n44# D w_n202_n86# pfet_03v3 ad=0.2464p pd=2u as=0.1456p ps=1.08u w=0.56u l=0.28u
.ends

.subckt nmos_5p04310591302033_3v1024x8m81 D a_0_n44# S VSUBS
X0 D a_0_n44# S VSUBS nfet_03v3 ad=0.1576p pd=1.64u as=0.1576p ps=1.64u w=0.28u l=0.28u
.ends

.subckt pmos_5p04310591302024_3v1024x8m81 w_n286_n86# D_uq1 D_uq0 a_530_n44# D a_n112_n44#
+ a_209_n44# a_369_n44# a_48_n44# S_uq1 S_uq0 S
X0 D_uq1 a_n112_n44# S_uq1 w_n286_n86# pfet_03v3 ad=0.2743p pd=1.575u as=0.4642p ps=2.99u w=1.055u l=0.28u
X1 S_uq0 a_369_n44# D w_n286_n86# pfet_03v3 ad=0.27692p pd=1.58u as=0.2743p ps=1.575u w=1.055u l=0.28u
X2 D a_209_n44# S w_n286_n86# pfet_03v3 ad=0.2743p pd=1.575u as=0.27692p ps=1.58u w=1.055u l=0.28u
X3 D_uq0 a_530_n44# S_uq0 w_n286_n86# pfet_03v3 ad=0.4642p pd=2.99u as=0.27692p ps=1.58u w=1.055u l=0.28u
X4 S a_48_n44# D_uq1 w_n286_n86# pfet_03v3 ad=0.27692p pd=1.58u as=0.2743p ps=1.575u w=1.055u l=0.28u
.ends

.subckt pmos_1p2$$46282796_3v1024x8m81 a_n126_n34# pmos_5p04310591302024_3v1024x8m81_0/S_uq1
+ pmos_5p04310591302024_3v1024x8m81_0/S pmos_5p04310591302024_3v1024x8m81_0/S_uq0
+ a_195_n34# pmos_5p04310591302024_3v1024x8m81_0/D_uq1 a_516_n34# pmos_5p04310591302024_3v1024x8m81_0/D_uq0
+ w_163_n66# pmos_5p04310591302024_3v1024x8m81_0/D a_355_n34# a_34_n34#
Xpmos_5p04310591302024_3v1024x8m81_0 w_163_n66# pmos_5p04310591302024_3v1024x8m81_0/D_uq1
+ pmos_5p04310591302024_3v1024x8m81_0/D_uq0 a_516_n34# pmos_5p04310591302024_3v1024x8m81_0/D
+ a_n126_n34# a_195_n34# a_355_n34# a_34_n34# pmos_5p04310591302024_3v1024x8m81_0/S_uq1
+ pmos_5p04310591302024_3v1024x8m81_0/S_uq0 pmos_5p04310591302024_3v1024x8m81_0/S
+ pmos_5p04310591302024_3v1024x8m81
.ends

.subckt pmos_5p04310591302035_3v1024x8m81 D S_uq0 a_130_n40# S w_n200_n80# a_n20_n40#
X0 S_uq0 a_130_n40# D w_n200_n80# pfet_03v3 ad=0.3375p pd=2.4u as=0.20625p ps=1.3u w=0.75u l=0.25u
X1 D a_n20_n40# S w_n200_n80# pfet_03v3 ad=0.20625p pd=1.3u as=0.3375p ps=2.4u w=0.75u l=0.2u
.ends

.subckt pmos_1p2$$46284844_3v1024x8m81 w_n133_n66# a_118_n34# pmos_5p04310591302035_3v1024x8m81_0/S_uq0
+ pmos_5p04310591302035_3v1024x8m81_0/S pmos_5p04310591302035_3v1024x8m81_0/D
Xpmos_5p04310591302035_3v1024x8m81_0 pmos_5p04310591302035_3v1024x8m81_0/D pmos_5p04310591302035_3v1024x8m81_0/S_uq0
+ a_118_n34# pmos_5p04310591302035_3v1024x8m81_0/S w_n133_n66# a_n42_n34# pmos_5p04310591302035_3v1024x8m81
.ends

.subckt nmos_5p04310591302023_3v1024x8m81 D S_uq0 a_130_n40# S a_n30_n40# VSUBS
X0 S_uq0 a_130_n40# D VSUBS nfet_03v3 ad=0.13p pd=1.5u as=77.5f ps=0.85u w=0.25u l=0.3u
X1 D a_n30_n40# S VSUBS nfet_03v3 ad=77.5f pd=0.85u as=0.13p ps=1.5u w=0.25u l=0.25u
.ends

.subckt nmos_5p04310591302029_3v1024x8m81 D a_n28_n44# a_132_n44# S_uq0 S VSUBS
X0 D a_n28_n44# S VSUBS nfet_03v3 ad=0.3159p pd=1.735u as=0.5346p ps=3.31u w=1.215u l=0.28u
X1 S_uq0 a_132_n44# D VSUBS nfet_03v3 ad=0.54067p pd=3.32u as=0.3159p ps=1.735u w=1.215u l=0.28u
.ends

.subckt nmos_1p2$$45100076_3v1024x8m81 nmos_5p04310591302029_3v1024x8m81_0/D nmos_5p04310591302029_3v1024x8m81_0/S_uq0
+ a_118_n34# a_n41_n34# nmos_5p04310591302029_3v1024x8m81_0/S VSUBS
Xnmos_5p04310591302029_3v1024x8m81_0 nmos_5p04310591302029_3v1024x8m81_0/D a_n41_n34#
+ a_118_n34# nmos_5p04310591302029_3v1024x8m81_0/S_uq0 nmos_5p04310591302029_3v1024x8m81_0/S
+ VSUBS nmos_5p04310591302029_3v1024x8m81
.ends

.subckt nmos_5p04310591302026_3v1024x8m81 D_uq2 D_uq1 D_uq0 D a_310_n40# a_470_n40#
+ a_0_n40# a_n160_n40# S_uq2 S_uq1 S_uq0 S a_150_n40# a_630_n40# a_790_n40# VSUBS
X0 S_uq1 a_0_n40# D_uq2 VSUBS nfet_03v3 ad=0.28875p pd=1.6u as=0.28875p ps=1.6u w=1.05u l=0.2u
X1 D a_470_n40# S VSUBS nfet_03v3 ad=0.2625p pd=1.55u as=0.2625p ps=1.55u w=1.05u l=0.3u
X2 S a_310_n40# D_uq1 VSUBS nfet_03v3 ad=0.2625p pd=1.55u as=0.2625p ps=1.55u w=1.05u l=0.3u
X3 D_uq2 a_n160_n40# S_uq2 VSUBS nfet_03v3 ad=0.28875p pd=1.6u as=0.4725p ps=3u w=1.05u l=0.25u
X4 D_uq0 a_790_n40# S_uq0 VSUBS nfet_03v3 ad=0.4725p pd=3u as=0.2625p ps=1.55u w=1.05u l=0.3u
X5 S_uq0 a_630_n40# D VSUBS nfet_03v3 ad=0.2625p pd=1.55u as=0.2625p ps=1.55u w=1.05u l=0.3u
X6 D_uq1 a_150_n40# S_uq1 VSUBS nfet_03v3 ad=0.2625p pd=1.55u as=0.28875p ps=1.6u w=1.05u l=0.3u
.ends

.subckt nmos_1p2$$45102124_3v1024x8m81 nmos_5p04310591302026_3v1024x8m81_0/S_uq2 nmos_5p04310591302026_3v1024x8m81_0/S_uq1
+ a_622_n34# nmos_5p04310591302026_3v1024x8m81_0/S_uq0 a_784_n34# a_140_n34# nmos_5p04310591302026_3v1024x8m81_0/D_uq2
+ nmos_5p04310591302026_3v1024x8m81_0/S nmos_5p04310591302026_3v1024x8m81_0/D_uq1
+ nmos_5p04310591302026_3v1024x8m81_0/D_uq0 a_462_n34# a_n22_n34# a_300_n34# nmos_5p04310591302026_3v1024x8m81_0/D
+ a_n181_n34# VSUBS
Xnmos_5p04310591302026_3v1024x8m81_0 nmos_5p04310591302026_3v1024x8m81_0/D_uq2 nmos_5p04310591302026_3v1024x8m81_0/D_uq1
+ nmos_5p04310591302026_3v1024x8m81_0/D_uq0 nmos_5p04310591302026_3v1024x8m81_0/D
+ a_300_n34# a_462_n34# a_n22_n34# a_n181_n34# nmos_5p04310591302026_3v1024x8m81_0/S_uq2
+ nmos_5p04310591302026_3v1024x8m81_0/S_uq1 nmos_5p04310591302026_3v1024x8m81_0/S_uq0
+ nmos_5p04310591302026_3v1024x8m81_0/S a_140_n34# a_622_n34# a_784_n34# VSUBS nmos_5p04310591302026_3v1024x8m81
.ends

.subckt pmos_5p04310591302013_3v1024x8m81 D_uq0 D a_265_n44# S_uq0 S a_n56_n44# a_104_n44#
+ w_n230_n86#
X0 D_uq0 a_265_n44# S_uq0 w_n230_n86# pfet_03v3 ad=0.4642p pd=2.99u as=0.27692p ps=1.58u w=1.055u l=0.28u
X1 D a_n56_n44# S w_n230_n86# pfet_03v3 ad=0.2743p pd=1.575u as=0.4642p ps=2.99u w=1.055u l=0.28u
X2 S_uq0 a_104_n44# D w_n230_n86# pfet_03v3 ad=0.27692p pd=1.58u as=0.2743p ps=1.575u w=1.055u l=0.28u
.ends

.subckt pmos_1p2$$46286892_3v1024x8m81 w_n133_n66# pmos_5p04310591302013_3v1024x8m81_0/D
+ pmos_5p04310591302013_3v1024x8m81_0/D_uq0 a_251_n34# a_n70_n34# pmos_5p04310591302013_3v1024x8m81_0/S
+ pmos_5p04310591302013_3v1024x8m81_0/S_uq0 a_90_n34#
Xpmos_5p04310591302013_3v1024x8m81_0 pmos_5p04310591302013_3v1024x8m81_0/D_uq0 pmos_5p04310591302013_3v1024x8m81_0/D
+ a_251_n34# pmos_5p04310591302013_3v1024x8m81_0/S_uq0 pmos_5p04310591302013_3v1024x8m81_0/S
+ a_n70_n34# a_90_n34# w_n133_n66# pmos_5p04310591302013_3v1024x8m81
.ends

.subckt pmos_5p04310591302038_3v1024x8m81 D a_0_n44# w_n174_n86# S
X0 D a_0_n44# S w_n174_n86# pfet_03v3 ad=0.2464p pd=2u as=0.2464p ps=2u w=0.56u l=0.28u
.ends

.subckt nmos_5p04310591302032_3v1024x8m81 D a_n28_n44# a_132_n44# S_uq0 S VSUBS
X0 D a_n28_n44# S VSUBS nfet_03v3 ad=0.1378p pd=1.05u as=0.2332p ps=1.94u w=0.53u l=0.28u
X1 S_uq0 a_132_n44# D VSUBS nfet_03v3 ad=0.23585p pd=1.95u as=0.1378p ps=1.05u w=0.53u l=0.28u
.ends

.subckt nmos_5p04310591302028_3v1024x8m81 a_n90_n40# D_uq1 a_60_n40# D_uq0 D a_220_n40#
+ a_380_n40# S_uq1 S_uq0 S a_540_n40# VSUBS
X0 S a_60_n40# D_uq1 VSUBS nfet_03v3 ad=0.2625p pd=1.55u as=0.2625p ps=1.55u w=1.05u l=0.3u
X1 S_uq0 a_380_n40# D VSUBS nfet_03v3 ad=0.2625p pd=1.55u as=0.2625p ps=1.55u w=1.05u l=0.3u
X2 D a_220_n40# S VSUBS nfet_03v3 ad=0.2625p pd=1.55u as=0.2625p ps=1.55u w=1.05u l=0.3u
X3 D_uq1 a_n90_n40# S_uq1 VSUBS nfet_03v3 ad=0.2625p pd=1.55u as=0.4725p ps=3u w=1.05u l=0.25u
X4 D_uq0 a_540_n40# S_uq0 VSUBS nfet_03v3 ad=0.4725p pd=3u as=0.2625p ps=1.55u w=1.05u l=0.3u
.ends

.subckt pmos_5p04310591302014_3v1024x8m81 D w_n170_n80# a_0_n40# S
X0 D a_0_n40# S w_n170_n80# pfet_03v3 ad=0.4725p pd=3u as=0.42p ps=2.9u w=1.05u l=0.25u
.ends

.subckt pmos_1p2$$46285868_3v1024x8m81 w_n133_n66# pmos_5p04310591302014_3v1024x8m81_0/S
+ pmos_5p04310591302014_3v1024x8m81_0/D a_n14_n34#
Xpmos_5p04310591302014_3v1024x8m81_0 pmos_5p04310591302014_3v1024x8m81_0/D w_n133_n66#
+ a_n14_n34# pmos_5p04310591302014_3v1024x8m81_0/S pmos_5p04310591302014_3v1024x8m81
.ends

.subckt pmos_5p04310591302031_3v1024x8m81 D a_n28_n44# a_132_n44# w_n202_n86# S_uq0
+ S
X0 D a_n28_n44# S w_n202_n86# pfet_03v3 ad=0.4134p pd=2.11u as=0.6996p ps=4.06u w=1.59u l=0.28u
X1 S_uq0 a_132_n44# D w_n202_n86# pfet_03v3 ad=0.6996p pd=4.06u as=0.4134p ps=2.11u w=1.59u l=0.28u
.ends

.subckt pmos_1p2$$46287916_3v1024x8m81 a_n42_n34# pmos_5p04310591302031_3v1024x8m81_0/S_uq0
+ pmos_5p04310591302031_3v1024x8m81_0/S a_118_n34# w_n132_n66# pmos_5p04310591302031_3v1024x8m81_0/D
Xpmos_5p04310591302031_3v1024x8m81_0 pmos_5p04310591302031_3v1024x8m81_0/D a_n42_n34#
+ a_118_n34# w_n132_n66# pmos_5p04310591302031_3v1024x8m81_0/S_uq0 pmos_5p04310591302031_3v1024x8m81_0/S
+ pmos_5p04310591302031_3v1024x8m81
.ends

.subckt nmos_5p04310591302034_3v1024x8m81 D a_0_n44# S VSUBS
X0 D a_0_n44# S VSUBS nfet_03v3 ad=0.2948p pd=2.22u as=0.2948p ps=2.22u w=0.67u l=0.28u
.ends

.subckt pmos_5p04310591302030_3v1024x8m81 D_uq2 a_871_n45# D_uq1 D_uq0 D a_n252_n45#
+ a_550_n45# a_229_n45# w_n426_n86# S_uq4 S_uq2 S_uq3 S_uq1 S_uq0 a_390_n45# S a_n92_n45#
+ a_1032_n45# a_1192_n45# D_uq3 a_711_n45# a_69_n45#
X0 D_uq1 a_390_n45# S_uq2 w_n426_n86# pfet_03v3 ad=0.3289p pd=1.785u as=0.33205p ps=1.79u w=1.265u l=0.28u
X1 D_uq3 a_n252_n45# S_uq4 w_n426_n86# pfet_03v3 ad=0.3289p pd=1.785u as=0.5566p ps=3.41u w=1.265u l=0.28u
X2 D_uq2 a_69_n45# S_uq3 w_n426_n86# pfet_03v3 ad=0.3289p pd=1.785u as=0.33205p ps=1.79u w=1.265u l=0.28u
X3 S_uq2 a_229_n45# D_uq2 w_n426_n86# pfet_03v3 ad=0.33205p pd=1.79u as=0.3289p ps=1.785u w=1.265u l=0.28u
X4 S_uq1 a_550_n45# D_uq1 w_n426_n86# pfet_03v3 ad=0.33205p pd=1.79u as=0.3289p ps=1.785u w=1.265u l=0.28u
X5 S_uq0 a_1192_n45# D_uq0 w_n426_n86# pfet_03v3 ad=0.5566p pd=3.41u as=0.3289p ps=1.785u w=1.265u l=0.28u
X6 D_uq0 a_1032_n45# S w_n426_n86# pfet_03v3 ad=0.3289p pd=1.785u as=0.33205p ps=1.79u w=1.265u l=0.28u
X7 S_uq3 a_n92_n45# D_uq3 w_n426_n86# pfet_03v3 ad=0.33205p pd=1.79u as=0.3289p ps=1.785u w=1.265u l=0.28u
X8 S a_871_n45# D w_n426_n86# pfet_03v3 ad=0.33205p pd=1.79u as=0.3289p ps=1.785u w=1.265u l=0.28u
X9 D a_711_n45# S_uq1 w_n426_n86# pfet_03v3 ad=0.3289p pd=1.785u as=0.33205p ps=1.79u w=1.265u l=0.28u
.ends

.subckt pmos_1p2$$45095980_3v1024x8m81 a_697_n34# a_n106_n34# pmos_5p04310591302030_3v1024x8m81_0/S_uq4
+ a_n266_n34# pmos_5p04310591302030_3v1024x8m81_0/S_uq3 a_376_n34# pmos_5p04310591302030_3v1024x8m81_0/S_uq2
+ pmos_5p04310591302030_3v1024x8m81_0/S_uq1 pmos_5p04310591302030_3v1024x8m81_0/S_uq0
+ a_1018_n34# a_1178_n34# pmos_5p04310591302030_3v1024x8m81_0/S a_55_n34# a_857_n34#
+ pmos_5p04310591302030_3v1024x8m81_0/D_uq3 pmos_5p04310591302030_3v1024x8m81_0/D_uq1
+ pmos_5p04310591302030_3v1024x8m81_0/D_uq2 pmos_5p04310591302030_3v1024x8m81_0/D_uq0
+ a_536_n34# w_987_n66# pmos_5p04310591302030_3v1024x8m81_0/D a_215_n34#
Xpmos_5p04310591302030_3v1024x8m81_0 pmos_5p04310591302030_3v1024x8m81_0/D_uq2 a_857_n34#
+ pmos_5p04310591302030_3v1024x8m81_0/D_uq1 pmos_5p04310591302030_3v1024x8m81_0/D_uq0
+ pmos_5p04310591302030_3v1024x8m81_0/D a_n266_n34# a_536_n34# a_215_n34# w_987_n66#
+ pmos_5p04310591302030_3v1024x8m81_0/S_uq4 pmos_5p04310591302030_3v1024x8m81_0/S_uq2
+ pmos_5p04310591302030_3v1024x8m81_0/S_uq3 pmos_5p04310591302030_3v1024x8m81_0/S_uq1
+ pmos_5p04310591302030_3v1024x8m81_0/S_uq0 a_376_n34# pmos_5p04310591302030_3v1024x8m81_0/S
+ a_n106_n34# a_1018_n34# a_1178_n34# pmos_5p04310591302030_3v1024x8m81_0/D_uq3 a_697_n34#
+ a_55_n34# pmos_5p04310591302030_3v1024x8m81
.ends

.subckt pmos_5p04310591302025_3v1024x8m81 D_uq0 D a_265_n44# S_uq0 S a_n56_n44# a_104_n44#
+ w_n230_n85#
X0 D_uq0 a_265_n44# S_uq0 w_n230_n85# pfet_03v3 ad=0.9306p pd=5.11u as=0.55518p ps=2.64u w=2.115u l=0.28u
X1 D a_n56_n44# S w_n230_n85# pfet_03v3 ad=0.5499p pd=2.635u as=0.9306p ps=5.11u w=2.115u l=0.28u
X2 S_uq0 a_104_n44# D w_n230_n85# pfet_03v3 ad=0.55518p pd=2.64u as=0.5499p ps=2.635u w=2.115u l=0.28u
.ends

.subckt pmos_1p2$$46281772_3v1024x8m81 pmos_5p04310591302025_3v1024x8m81_0/D_uq0 pmos_5p04310591302025_3v1024x8m81_0/D
+ a_251_n34# a_n70_n34# w_n133_n66# a_90_n34# pmos_5p04310591302025_3v1024x8m81_0/S_uq0
+ pmos_5p04310591302025_3v1024x8m81_0/S
Xpmos_5p04310591302025_3v1024x8m81_0 pmos_5p04310591302025_3v1024x8m81_0/D_uq0 pmos_5p04310591302025_3v1024x8m81_0/D
+ a_251_n34# pmos_5p04310591302025_3v1024x8m81_0/S_uq0 pmos_5p04310591302025_3v1024x8m81_0/S
+ a_n70_n34# a_90_n34# w_n133_n66# pmos_5p04310591302025_3v1024x8m81
.ends

.subckt nmos_5p04310591302037_3v1024x8m81 D a_340_n40# a_n140_n40# S_uq2 S_uq0 a_500_n40#
+ a_180_n40# a_660_n40# a_20_n40# VSUBS
X0 S_uq1 a_20_n40# D_uq1 VSUBS nfet_03v3 ad=0.3575p pd=1.85u as=0.325p ps=1.8u w=1.3u l=0.25u
X1 S a_340_n40# D VSUBS nfet_03v3 ad=0.3575p pd=1.85u as=0.3575p ps=1.85u w=1.3u l=0.25u
X2 D_uq1 a_n140_n40# S_uq2 VSUBS nfet_03v3 ad=0.325p pd=1.8u as=0.52p ps=3.4u w=1.3u l=0.3u
X3 S_uq0 a_660_n40# D_uq0 VSUBS nfet_03v3 ad=0.585p pd=3.5u as=0.3575p ps=1.85u w=1.3u l=0.25u
X4 D a_180_n40# S_uq1 VSUBS nfet_03v3 ad=0.3575p pd=1.85u as=0.3575p ps=1.85u w=1.3u l=0.25u
X5 D_uq0 a_500_n40# S VSUBS nfet_03v3 ad=0.3575p pd=1.85u as=0.3575p ps=1.85u w=1.3u l=0.25u
.ends

.subckt nmos_1p2$$45103148_3v1024x8m81 a_326_n34# nmos_5p04310591302037_3v1024x8m81_0/D
+ nmos_5p04310591302037_3v1024x8m81_0/S_uq2 nmos_5p04310591302037_3v1024x8m81_0/S_uq0
+ a_488_n34# a_n152_n34# a_166_n34# a_6_n34# VSUBS
Xnmos_5p04310591302037_3v1024x8m81_0 nmos_5p04310591302037_3v1024x8m81_0/D a_326_n34#
+ a_n152_n34# nmos_5p04310591302037_3v1024x8m81_0/S_uq2 nmos_5p04310591302037_3v1024x8m81_0/S_uq0
+ a_488_n34# a_166_n34# a_648_n34# a_6_n34# VSUBS nmos_5p04310591302037_3v1024x8m81
.ends

.subckt pmos_5p04310591302022_3v1024x8m81 D_uq2 D_uq1 D_uq0 D a_n252_n44# a_550_n44#
+ a_229_n44# w_n426_n86# S_uq4 S_uq2 S_uq3 S_uq1 a_390_n44# S_uq0 S a_n92_n44# a_1032_n44#
+ a_1192_n44# a_711_n44# a_69_n44# D_uq3 a_871_n44#
X0 D_uq1 a_390_n44# S_uq2 w_n426_n86# pfet_03v3 ad=0.4953p pd=2.425u as=0.50005p ps=2.43u w=1.905u l=0.28u
X1 D_uq3 a_n252_n44# S_uq4 w_n426_n86# pfet_03v3 ad=0.4953p pd=2.425u as=0.8382p ps=4.69u w=1.905u l=0.28u
X2 D_uq2 a_69_n44# S_uq3 w_n426_n86# pfet_03v3 ad=0.4953p pd=2.425u as=0.50005p ps=2.43u w=1.905u l=0.28u
X3 S_uq2 a_229_n44# D_uq2 w_n426_n86# pfet_03v3 ad=0.50005p pd=2.43u as=0.4953p ps=2.425u w=1.905u l=0.28u
X4 S_uq1 a_550_n44# D_uq1 w_n426_n86# pfet_03v3 ad=0.50005p pd=2.43u as=0.4953p ps=2.425u w=1.905u l=0.28u
X5 S_uq0 a_1192_n44# D_uq0 w_n426_n86# pfet_03v3 ad=0.8382p pd=4.69u as=0.4953p ps=2.425u w=1.905u l=0.28u
X6 D_uq0 a_1032_n44# S w_n426_n86# pfet_03v3 ad=0.4953p pd=2.425u as=0.50005p ps=2.43u w=1.905u l=0.28u
X7 S_uq3 a_n92_n44# D_uq3 w_n426_n86# pfet_03v3 ad=0.50005p pd=2.43u as=0.4953p ps=2.425u w=1.905u l=0.28u
X8 S a_871_n44# D w_n426_n86# pfet_03v3 ad=0.50005p pd=2.43u as=0.4953p ps=2.425u w=1.905u l=0.28u
X9 D a_711_n44# S_uq1 w_n426_n86# pfet_03v3 ad=0.4953p pd=2.425u as=0.50005p ps=2.43u w=1.905u l=0.28u
.ends

.subckt pmos_1p2$$46283820_3v1024x8m81 a_536_n34# a_215_n34# a_697_n34# pmos_5p04310591302022_3v1024x8m81_0/S_uq3
+ pmos_5p04310591302022_3v1024x8m81_0/S_uq4 pmos_5p04310591302022_3v1024x8m81_0/S_uq2
+ a_n106_n34# pmos_5p04310591302022_3v1024x8m81_0/S_uq1 a_n266_n34# pmos_5p04310591302022_3v1024x8m81_0/S_uq0
+ pmos_5p04310591302022_3v1024x8m81_0/S a_376_n34# w_984_n66# a_1018_n34# a_1178_n34#
+ a_55_n34# pmos_5p04310591302022_3v1024x8m81_0/D_uq3 pmos_5p04310591302022_3v1024x8m81_0/D_uq2
+ pmos_5p04310591302022_3v1024x8m81_0/D_uq1 a_857_n34# pmos_5p04310591302022_3v1024x8m81_0/D_uq0
+ pmos_5p04310591302022_3v1024x8m81_0/D
Xpmos_5p04310591302022_3v1024x8m81_0 pmos_5p04310591302022_3v1024x8m81_0/D_uq2 pmos_5p04310591302022_3v1024x8m81_0/D_uq1
+ pmos_5p04310591302022_3v1024x8m81_0/D_uq0 pmos_5p04310591302022_3v1024x8m81_0/D
+ a_n266_n34# a_536_n34# a_215_n34# w_984_n66# pmos_5p04310591302022_3v1024x8m81_0/S_uq4
+ pmos_5p04310591302022_3v1024x8m81_0/S_uq2 pmos_5p04310591302022_3v1024x8m81_0/S_uq3
+ pmos_5p04310591302022_3v1024x8m81_0/S_uq1 a_376_n34# pmos_5p04310591302022_3v1024x8m81_0/S_uq0
+ pmos_5p04310591302022_3v1024x8m81_0/S a_n106_n34# a_1018_n34# a_1178_n34# a_697_n34#
+ a_55_n34# pmos_5p04310591302022_3v1024x8m81_0/D_uq3 a_857_n34# pmos_5p04310591302022_3v1024x8m81
.ends

.subckt sacntl_2_3v1024x8m81 pcb se pmos_5p04310591302027_3v1024x8m81_1/S_uq0 pmos_5p04310591302027_3v1024x8m81_2/S_uq0
+ vdd men vdd_uq0 vss
Xnmos_5p04310591302012_3v1024x8m81_0 se se nmos_5p04310591302028_3v1024x8m81_1/S nmos_5p04310591302028_3v1024x8m81_1/S
+ nmos_5p04310591302028_3v1024x8m81_1/S vss vss vss nmos_5p04310591302028_3v1024x8m81_1/S
+ vss nmos_5p04310591302012_3v1024x8m81
Xnmos_1p2$$45101100_3v1024x8m81_0 men vss men pmos_1p2$$46282796_3v1024x8m81_0/pmos_5p04310591302024_3v1024x8m81_0/D
+ men men vss vss pmos_1p2$$46282796_3v1024x8m81_0/pmos_5p04310591302024_3v1024x8m81_0/D
+ vss men pmos_1p2$$46282796_3v1024x8m81_0/pmos_5p04310591302024_3v1024x8m81_0/D nmos_1p2$$45101100_3v1024x8m81
Xpmos_5p04310591302027_3v1024x8m81_0 vdd_uq0 pmos_5p04310591302027_3v1024x8m81_2/S_uq0
+ pmos_5p04310591302027_3v1024x8m81_0/S vdd_uq0 pmos_5p04310591302027_3v1024x8m81_0/S_uq0
+ pmos_5p04310591302027_3v1024x8m81_0/S pmos_5p04310591302027_3v1024x8m81
Xnmos_5p04310591302033_3v1024x8m81_0 vss pmos_5p04310591302027_3v1024x8m81_0/S_uq0
+ pmos_5p04310591302038_3v1024x8m81_0/S vss nmos_5p04310591302033_3v1024x8m81
Xpmos_5p04310591302027_3v1024x8m81_1 vdd_uq0 pmos_1p2$$46282796_3v1024x8m81_0/pmos_5p04310591302024_3v1024x8m81_0/D
+ vss vdd_uq0 pmos_5p04310591302027_3v1024x8m81_1/S_uq0 pmos_5p04310591302027_3v1024x8m81_1/S
+ pmos_5p04310591302027_3v1024x8m81
Xpmos_5p04310591302027_3v1024x8m81_2 vdd_uq0 pmos_5p04310591302027_3v1024x8m81_1/S_uq0
+ pmos_5p04310591302027_3v1024x8m81_2/S vdd_uq0 pmos_5p04310591302027_3v1024x8m81_2/S_uq0
+ pmos_5p04310591302027_3v1024x8m81_2/S pmos_5p04310591302027_3v1024x8m81
Xpmos_1p2$$46282796_3v1024x8m81_0 men vdd_uq0 vdd_uq0 vdd_uq0 men pmos_1p2$$46282796_3v1024x8m81_0/pmos_5p04310591302024_3v1024x8m81_0/D
+ men pmos_1p2$$46282796_3v1024x8m81_0/pmos_5p04310591302024_3v1024x8m81_0/D vdd_uq0
+ pmos_1p2$$46282796_3v1024x8m81_0/pmos_5p04310591302024_3v1024x8m81_0/D men men pmos_1p2$$46282796_3v1024x8m81
Xpmos_1p2$$46284844_3v1024x8m81_0 vdd_uq0 pmos_5p04310591302027_3v1024x8m81_1/S vdd_uq0
+ vdd_uq0 nmos_5p04310591302034_3v1024x8m81_0/D pmos_1p2$$46284844_3v1024x8m81
Xnmos_5p04310591302023_3v1024x8m81_0 vss pmos_5p04310591302027_3v1024x8m81_0/S_uq0
+ pmos_5p04310591302027_3v1024x8m81_0/S pmos_5p04310591302027_3v1024x8m81_0/S pmos_5p04310591302027_3v1024x8m81_2/S_uq0
+ vss nmos_5p04310591302023_3v1024x8m81
Xnmos_1p2$$45100076_3v1024x8m81_0 pmos_1p2$$46281772_3v1024x8m81_0/pmos_5p04310591302025_3v1024x8m81_0/S
+ vss pmos_1p2$$46281772_3v1024x8m81_1/pmos_5p04310591302025_3v1024x8m81_0/S pmos_1p2$$46281772_3v1024x8m81_1/pmos_5p04310591302025_3v1024x8m81_0/S
+ vss vss nmos_1p2$$45100076_3v1024x8m81
Xnmos_5p04310591302023_3v1024x8m81_1 vss pmos_5p04310591302027_3v1024x8m81_1/S_uq0
+ nmos_5p04310591302023_3v1024x8m81_1/a_130_n40# pmos_5p04310591302027_3v1024x8m81_1/S
+ pmos_1p2$$46282796_3v1024x8m81_0/pmos_5p04310591302024_3v1024x8m81_0/D vss nmos_5p04310591302023_3v1024x8m81
Xnmos_5p04310591302023_3v1024x8m81_2 vss pmos_5p04310591302027_3v1024x8m81_2/S_uq0
+ nmos_5p04310591302023_3v1024x8m81_2/a_130_n40# pmos_5p04310591302027_3v1024x8m81_2/S
+ nmos_5p04310591302023_3v1024x8m81_2/a_n30_n40# vss nmos_5p04310591302023_3v1024x8m81
Xnmos_1p2$$45102124_3v1024x8m81_0 vss vss pmos_1p2$$46281772_3v1024x8m81_0/pmos_5p04310591302025_3v1024x8m81_0/S
+ vss pmos_1p2$$46281772_3v1024x8m81_0/pmos_5p04310591302025_3v1024x8m81_0/S pmos_1p2$$46281772_3v1024x8m81_0/pmos_5p04310591302025_3v1024x8m81_0/S
+ pcb vss pcb pcb pmos_1p2$$46281772_3v1024x8m81_0/pmos_5p04310591302025_3v1024x8m81_0/S
+ pmos_1p2$$46281772_3v1024x8m81_0/pmos_5p04310591302025_3v1024x8m81_0/S pmos_1p2$$46281772_3v1024x8m81_0/pmos_5p04310591302025_3v1024x8m81_0/S
+ pcb pmos_1p2$$46281772_3v1024x8m81_0/pmos_5p04310591302025_3v1024x8m81_0/S vss nmos_1p2$$45102124_3v1024x8m81
Xpmos_1p2$$46286892_3v1024x8m81_0 vdd nmos_5p04310591302028_3v1024x8m81_1/S nmos_5p04310591302028_3v1024x8m81_1/S
+ nmos_5p04310591302032_3v1024x8m81_0/D nmos_5p04310591302032_3v1024x8m81_0/D vdd
+ vdd nmos_5p04310591302032_3v1024x8m81_0/D pmos_1p2$$46286892_3v1024x8m81
Xpmos_5p04310591302038_3v1024x8m81_0 vdd_uq0 pmos_5p04310591302027_3v1024x8m81_0/S_uq0